data/Network_01R-10/scenario_4/case.raw
 0,    100, 33, 0, 0, 60.0 / Header line 1
Header line 2
Header line 3
     1,'',   138, 1, 1, 1, 1, 1.0198922, -95.753583, 1.1, 0.9, 1.1, 0.9
     2,'',   138, 1, 1, 1, 1, 1.0195277, -95.798416, 1.1, 0.9, 1.1, 0.9
     3,'',   138, 1, 1, 1, 1, 1.0180562, -98.548692, 1.1, 0.9, 1.1, 0.9
     4,'',   138, 1, 1, 1, 1, 1.0167034, -98.703957, 1.1, 0.9, 1.1, 0.9
     5,'',   138, 1, 1, 1, 1, 0.98810467, -60.074172, 1.1, 0.9, 1.1, 0.9
     6,'',   138, 1, 1, 1, 1, 0.98808427, -60.076853, 1.1, 0.9, 1.1, 0.9
     7,'',   345, 1, 1, 1, 1, 1.0343806, -93.79198, 1.1, 0.9, 1.1, 0.9
     8,'',   138, 1, 1, 1, 1, 1.0298151, -95.173551, 1.1, 0.9, 1.1, 0.9
     9,'',  13.8, 2, 1, 1, 1, 1.04, -92.878822, 1.1, 0.9, 1.1, 0.9
    10,'',   138, 1, 1, 1, 1, 1.0330192, -88.988077, 1.1, 0.9, 1.1, 0.9
    11,'',   138, 1, 1, 1, 1, 1.0330065, -88.989499, 1.1, 0.9, 1.1, 0.9
    12,'',   138, 1, 1, 1, 1, 1.0204839, -83.854125, 1.1, 0.9, 1.1, 0.9
    13,'',   138, 1, 1, 1, 1, 1.0202473, -83.881134, 1.1, 0.9, 1.1, 0.9
    14,'',   345, 1, 1, 1, 1, 1.0360066, -76.995523, 1.1, 0.9, 1.1, 0.9
    15,'',   138, 1, 1, 1, 1, 1.0329887, -78.350925, 1.1, 0.9, 1.1, 0.9
    16,'',  13.8, 2, 1, 1, 1, 1.0360066, -76.995523, 1.1, 0.9, 1.1, 0.9
    17,'',  13.8, 3, 1, 1, 1, 1.04, -73.600274, 1.1, 0.9, 1.1, 0.9
    18,'',  13.8, 2, 1, 1, 1, 1.04, -72.712041, 1.1, 0.9, 1.1, 0.9
    19,'',   138, 1, 1, 1, 1, 1.0300709, -94.68571, 1.1, 0.9, 1.1, 0.9
    20,'',   138, 1, 1, 1, 1, 1.0300463, -94.688959, 1.1, 0.9, 1.1, 0.9
    21,'',   138, 1, 1, 1, 1, 1.0204214, -93.814488, 1.1, 0.9, 1.1, 0.9
    22,'',   138, 1, 1, 1, 1, 1.0190912, -93.97124, 1.1, 0.9, 1.1, 0.9
    23,'',   345, 1, 1, 1, 1, 1.0343695, -83.991844, 1.1, 0.9, 1.1, 0.9
    24,'',   138, 1, 1, 1, 1, 1.0284321, -84.822264, 1.1, 0.9, 1.1, 0.9
    25,'',   138, 1, 1, 1, 1, 1.0284199, -84.82375, 1.1, 0.9, 1.1, 0.9
    26,'',   138, 1, 1, 1, 1, 1.0283181, -84.836842, 1.1, 0.9, 1.1, 0.9
    27,'',   138, 1, 1, 1, 1, 1.0095751, -85.741068, 1.1, 0.9, 1.1, 0.9
    28,'',   138, 1, 1, 1, 1, 1.0091974, -85.787489, 1.1, 0.9, 1.1, 0.9
    29,'',   138, 1, 1, 1, 1, 1.0150444, -97.676431, 1.1, 0.9, 1.1, 0.9
    30,'',   138, 1, 1, 1, 1, 1.0141074, -97.787014, 1.1, 0.9, 1.1, 0.9
    31,'',   138, 1, 1, 1, 1, 1.0329642, -95.068757, 1.1, 0.9, 1.1, 0.9
    32,'',   138, 1, 1, 1, 1, 1.0329126, -95.074811, 1.1, 0.9, 1.1, 0.9
    33,'',   138, 1, 1, 1, 1, 1.0256805, -93.082789, 1.1, 0.9, 1.1, 0.9
    34,'',   138, 1, 1, 1, 1, 1.025551, -93.097812, 1.1, 0.9, 1.1, 0.9
    35,'',   138, 1, 1, 1, 1, 1.0337227, -94.508546, 1.1, 0.9, 1.1, 0.9
    36,'',   138, 1, 1, 1, 1, 1.0335162, -94.5322, 1.1, 0.9, 1.1, 0.9
    37,'',   138, 1, 1, 1, 1, 0.98945798, -62.796432, 1.1, 0.9, 1.1, 0.9
    38,'',   138, 1, 1, 1, 1, 0.98945714, -62.796548, 1.1, 0.9, 1.1, 0.9
    39,'',   345, 1, 1, 1, 1, 1.0341453, -83.450075, 1.1, 0.9, 1.1, 0.9
    40,'',   138, 1, 1, 1, 1, 1.0321485, -83.869846, 1.1, 0.9, 1.1, 0.9
    41,'',   138, 1, 1, 1, 1, 1.0318211, -83.910494, 1.1, 0.9, 1.1, 0.9
    42,'',   138, 1, 1, 1, 1, 1.0354315, -93.161409, 1.1, 0.9, 1.1, 0.9
    43,'',   138, 1, 1, 1, 1, 1.0354105, -93.163919, 1.1, 0.9, 1.1, 0.9
    44,'',   138, 1, 1, 1, 1, 1.0228418, -93.87365, 1.1, 0.9, 1.1, 0.9
    45,'',   138, 1, 1, 1, 1, 1.0228208, -93.876265, 1.1, 0.9, 1.1, 0.9
    46,'',   138, 1, 1, 1, 1, 1.0269942, -85.809472, 1.1, 0.9, 1.1, 0.9
    47,'',   138, 1, 1, 1, 1, 1.0267706, -85.836431, 1.1, 0.9, 1.1, 0.9
    48,'',   138, 1, 1, 1, 1, 1.0126152, -86.40981, 1.1, 0.9, 1.1, 0.9
    49,'',  13.8, 2, 1, 1, 1, 1.0144545, -86.21238, 1.1, 0.9, 1.1, 0.9
    50,'',  13.8, 2, 1, 1, 1, 1.0147404, -86.177511, 1.1, 0.9, 1.1, 0.9
    51,'',   138, 1, 1, 1, 1, 1.0126132, -86.410055, 1.1, 0.9, 1.1, 0.9
    52,'',   138, 1, 1, 1, 1, 1.0124916, -86.424507, 1.1, 0.9, 1.1, 0.9
    53,'',   138, 1, 1, 1, 1, 1.0205692, -96.85503, 1.1, 0.9, 1.1, 0.9
    54,'',   138, 1, 1, 1, 1, 1.0202452, -96.890008, 1.1, 0.9, 1.1, 0.9
    55,'',   138, 1, 1, 1, 1, 1.0304859, -86.504111, 1.1, 0.9, 1.1, 0.9
    56,'',   138, 1, 1, 1, 1, 1.0304741, -86.505461, 1.1, 0.9, 1.1, 0.9
    57,'',   345, 1, 1, 1, 1, 1.0305006, -81.419239, 1.1, 0.9, 1.1, 0.9
    58,'',   138, 1, 1, 1, 1, 1.0248538, -82.778856, 1.1, 0.9, 1.1, 0.9
    59,'',   138, 1, 1, 1, 1, 1.0238426, -82.904981, 1.1, 0.9, 1.1, 0.9
    60,'',   138, 1, 1, 1, 1, 1.0315405, -84.117691, 1.1, 0.9, 1.1, 0.9
    61,'',   138, 1, 1, 1, 1, 1.0315395, -84.11782, 1.1, 0.9, 1.1, 0.9
    62,'',   138, 1, 1, 1, 1, 1.0192206, -97.890959, 1.1, 0.9, 1.1, 0.9
    63,'',  13.8, 2, 1, 1, 1, 1.0192206, -97.890959, 1.1, 0.9, 1.1, 0.9
    64,'',   138, 1, 1, 1, 1, 1.0188883, -97.928645, 1.1, 0.9, 1.1, 0.9
    65,'',   345, 1, 1, 1, 1, 1.0346121, -82.780716, 1.1, 0.9, 1.1, 0.9
    66,'',   138, 1, 1, 1, 1, 1.0336317, -84.379105, 1.1, 0.9, 1.1, 0.9
    67,'',   138, 1, 1, 1, 1, 1.0336073, -84.381865, 1.1, 0.9, 1.1, 0.9
    68,'',   138, 1, 1, 1, 1, 1.015062, -84.969712, 1.1, 0.9, 1.1, 0.9
    69,'',   138, 1, 1, 1, 1, 1.0149614, -84.982216, 1.1, 0.9, 1.1, 0.9
    70,'',   138, 1, 1, 1, 1, 1.0236786, -84.358899, 1.1, 0.9, 1.1, 0.9
    71,'',  13.8, 2, 1, 1, 1, 1.024286, -84.338925, 1.1, 0.9, 1.1, 0.9
    72,'',  13.8, 2, 1, 1, 1, 1.0247053, -84.326428, 1.1, 0.9, 1.1, 0.9
    73,'',  13.8, 2, 1, 1, 1, 1.02508, -84.318176, 1.1, 0.9, 1.1, 0.9
    74,'',   138, 1, 1, 1, 1, 1.033601, -95.248066, 1.1, 0.9, 1.1, 0.9
    75,'',   138, 1, 1, 1, 1, 1.0335531, -95.253805, 1.1, 0.9, 1.1, 0.9
    76,'',   138, 1, 1, 1, 1, 0.99158541, -61.494422, 1.1, 0.9, 1.1, 0.9
    77,'',   138, 1, 1, 1, 1, 0.99153932, -61.499698, 1.1, 0.9, 1.1, 0.9
    78,'',   138, 1, 1, 1, 1, 1.0275293, -79.946394, 1.1, 0.9, 1.1, 0.9
    79,'',   138, 1, 1, 1, 1, 1.0275267, -79.946689, 1.1, 0.9, 1.1, 0.9
    80,'',   345, 1, 1, 1, 1, 1.0406463, -92.833101, 1.1, 0.9, 1.1, 0.9
    81,'',   138, 1, 1, 1, 1, 1.0360238, -92.721141, 1.1, 0.9, 1.1, 0.9
    82,'',  13.8, 2, 1, 1, 1, 1.04, -91.566326, 1.1, 0.9, 1.1, 0.9
    83,'',   138, 1, 1, 1, 1, 1.0264149, -91.649805, 1.1, 0.9, 1.1, 0.9
    84,'',   138, 1, 1, 1, 1, 1.0260731, -91.691014, 1.1, 0.9, 1.1, 0.9
    85,'',   138, 1, 1, 1, 1, 1.0332075, -94.889301, 1.1, 0.9, 1.1, 0.9
    86,'',   138, 1, 1, 1, 1, 1.0331055, -94.901757, 1.1, 0.9, 1.1, 0.9
    87,'',   138, 1, 1, 1, 1, 1.0038271, -58.86774, 1.1, 0.9, 1.1, 0.9
    88,'',   138, 1, 1, 1, 1, 1.0037928, -58.871974, 1.1, 0.9, 1.1, 0.9
    89,'',   138, 1, 1, 1, 1, 1.0241909, -96.601348, 1.1, 0.9, 1.1, 0.9
    90,'',   138, 1, 1, 1, 1, 1.024133, -96.608944, 1.1, 0.9, 1.1, 0.9
    91,'',   138, 1, 1, 1, 1, 1.029598, -79.134864, 1.1, 0.9, 1.1, 0.9
    92,'',   138, 1, 1, 1, 1, 1.0291514, -79.190861, 1.1, 0.9, 1.1, 0.9
    93,'',   138, 1, 1, 1, 1, 0.97828608, -76.573953, 1.1, 0.9, 1.1, 0.9
    94,'',   138, 1, 1, 1, 1, 0.97823837, -76.580165, 1.1, 0.9, 1.1, 0.9
    95,'',   138, 1, 1, 1, 1, 1.0301587, -79.316225, 1.1, 0.9, 1.1, 0.9
    96,'',   138, 1, 1, 1, 1, 1.0299416, -79.342414, 1.1, 0.9, 1.1, 0.9
    97,'',   138, 1, 1, 1, 1, 1.008054, -85.531236, 1.1, 0.9, 1.1, 0.9
    98,'',   138, 1, 1, 1, 1, 1.0077778, -85.568106, 1.1, 0.9, 1.1, 0.9
    99,'',   138, 1, 1, 1, 1, 1.0312865, -84.236866, 1.1, 0.9, 1.1, 0.9
   100,'',   138, 1, 1, 1, 1, 1.0312133, -84.245583, 1.1, 0.9, 1.1, 0.9
   101,'',   138, 1, 1, 1, 1, 1.0312818, -84.237383, 1.1, 0.9, 1.1, 0.9
   102,'',   138, 1, 1, 1, 1, 1.0172363, -87.719845, 1.1, 0.9, 1.1, 0.9
   103,'',   138, 1, 1, 1, 1, 1.0170137, -87.748064, 1.1, 0.9, 1.1, 0.9
   104,'',   138, 1, 1, 1, 1, 1.0310865, -95.037163, 1.1, 0.9, 1.1, 0.9
   105,'',   138, 1, 1, 1, 1, 1.0306246, -95.091917, 1.1, 0.9, 1.1, 0.9
   106,'',   138, 1, 1, 1, 1, 1.0338663, -94.358281, 1.1, 0.9, 1.1, 0.9
   107,'',   138, 1, 1, 1, 1, 1.0337879, -94.367552, 1.1, 0.9, 1.1, 0.9
   108,'',   138, 1, 1, 1, 1, 1.0292943, -84.50414, 1.1, 0.9, 1.1, 0.9
   109,'',   138, 1, 1, 1, 1, 1.0290598, -84.529456, 1.1, 0.9, 1.1, 0.9
   110,'',   138, 1, 1, 1, 1, 0.98262105, -61.802857, 1.1, 0.9, 1.1, 0.9
   111,'',   138, 1, 1, 1, 1, 0.98228719, -61.848638, 1.1, 0.9, 1.1, 0.9
   112,'',   138, 1, 1, 1, 1, 1.0263624, -94.671773, 1.1, 0.9, 1.1, 0.9
   113,'',   138, 1, 1, 1, 1, 1.0261281, -94.697873, 1.1, 0.9, 1.1, 0.9
   114,'',   138, 1, 1, 1, 1, 1.033801, -94.606936, 1.1, 0.9, 1.1, 0.9
   115,'',   138, 1, 1, 1, 1, 1.0337767, -94.610033, 1.1, 0.9, 1.1, 0.9
   116,'',   138, 1, 1, 1, 1, 1.033786, -94.608863, 1.1, 0.9, 1.1, 0.9
   117,'',   138, 1, 1, 1, 1, 1.027922, -84.192801, 1.1, 0.9, 1.1, 0.9
   118,'',   138, 1, 1, 1, 1, 1.0278714, -84.199042, 1.1, 0.9, 1.1, 0.9
   119,'',   138, 1, 1, 1, 1, 1.0155091, -84.759175, 1.1, 0.9, 1.1, 0.9
   120,'',   138, 1, 1, 1, 1, 1.0153187, -84.781956, 1.1, 0.9, 1.1, 0.9
   121,'',   138, 1, 1, 1, 1, 1.0182103, -97.57847, 1.1, 0.9, 1.1, 0.9
   122,'',   138, 1, 1, 1, 1, 1.017684, -97.647667, 1.1, 0.9, 1.1, 0.9
   123,'',   345, 1, 1, 1, 1, 1.0361179, -79.372224, 1.1, 0.9, 1.1, 0.9
   124,'',   138, 1, 1, 1, 1, 1.0351988, -79.478885, 1.1, 0.9, 1.1, 0.9
   125,'',  13.8, 2, 1, 1, 1, 1.0361179, -79.372224, 1.1, 0.9, 1.1, 0.9
   126,'',  13.8, 2, 1, 1, 1, 1.0361179, -79.372224, 1.1, 0.9, 1.1, 0.9
   127,'',  13.8, 2, 1, 1, 1, 1.0361179, -79.372224, 1.1, 0.9, 1.1, 0.9
   128,'',  13.8, 2, 1, 1, 1, 1.0361179, -79.372224, 1.1, 0.9, 1.1, 0.9
   129,'',   138, 1, 1, 1, 1, 1.0140747, -84.876225, 1.1, 0.9, 1.1, 0.9
   130,'',   138, 1, 1, 1, 1, 1.0133679, -84.953962, 1.1, 0.9, 1.1, 0.9
   131,'',   138, 1, 1, 1, 1, 1.031251, -84.023782, 1.1, 0.9, 1.1, 0.9
   132,'',   138, 1, 1, 1, 1, 1.0311121, -84.039973, 1.1, 0.9, 1.1, 0.9
   133,'',   138, 1, 1, 1, 1, 1.0306051, -79.196185, 1.1, 0.9, 1.1, 0.9
   134,'',   138, 1, 1, 1, 1, 1.0303506, -79.227334, 1.1, 0.9, 1.1, 0.9
   135,'',   138, 1, 1, 1, 1, 1.0218635, -96.965132, 1.1, 0.9, 1.1, 0.9
   136,'',   138, 1, 1, 1, 1, 1.0216101, -96.997854, 1.1, 0.9, 1.1, 0.9
   137,'',   138, 1, 1, 1, 1, 1.0291464, -84.872548, 1.1, 0.9, 1.1, 0.9
   138,'',   138, 1, 1, 1, 1, 1.028722, -84.92742, 1.1, 0.9, 1.1, 0.9
   139,'',   138, 1, 1, 1, 1, 1.0308102, -84.35481, 1.1, 0.9, 1.1, 0.9
   140,'',   138, 1, 1, 1, 1, 1.030809, -84.354953, 1.1, 0.9, 1.1, 0.9
   141,'',   138, 1, 1, 1, 1, 1.0012389, -62.953973, 1.1, 0.9, 1.1, 0.9
   142,'',   138, 1, 1, 1, 1, 1.000163, -63.078295, 1.1, 0.9, 1.1, 0.9
   143,'',   138, 1, 1, 1, 1, 1.018957, -52.933235, 1.1, 0.9, 1.1, 0.9
   144,'',  13.8, 2, 1, 1, 1, 1.04, -47.591868, 1.1, 0.9, 1.1, 0.9
   145,'',  13.8, 2, 1, 1, 1, 1.04, -47.47968, 1.1, 0.9, 1.1, 0.9
   146,'',   345, 1, 1, 1, 1, 1.0281755, -90.954905, 1.1, 0.9, 1.1, 0.9
   147,'',   138, 1, 1, 1, 1, 0.99456936, -86.856109, 1.1, 0.9, 1.1, 0.9
   148,'',   138, 1, 1, 1, 1, 0.99396691, -86.935812, 1.1, 0.9, 1.1, 0.9
   149,'',   138, 1, 1, 1, 1, 1.0332432, -92.07851, 1.1, 0.9, 1.1, 0.9
   150,'',   138, 1, 1, 1, 1, 1.0332346, -92.079513, 1.1, 0.9, 1.1, 0.9
   151,'',   345, 1, 1, 1, 1, 1.0351432, -83.94305, 1.1, 0.9, 1.1, 0.9
   152,'',   138, 1, 1, 1, 1, 1.035, -84.797478, 1.1, 0.9, 1.1, 0.9
   153,'',   138, 1, 1, 1, 1, 1.0345748, -84.848873, 1.1, 0.9, 1.1, 0.9
   154,'',   138, 1, 1, 1, 1, 1.0292066, -84.783515, 1.1, 0.9, 1.1, 0.9
   155,'',   138, 1, 1, 1, 1, 1.0289056, -84.819449, 1.1, 0.9, 1.1, 0.9
   156,'',   138, 1, 1, 1, 1, 1.02073, -86.390511, 1.1, 0.9, 1.1, 0.9
   157,'',   138, 1, 1, 1, 1, 1.0200149, -86.478815, 1.1, 0.9, 1.1, 0.9
   158,'',   138, 1, 1, 1, 1, 1.0182823, -97.062142, 1.1, 0.9, 1.1, 0.9
   159,'',   138, 1, 1, 1, 1, 1.0180496, -97.091875, 1.1, 0.9, 1.1, 0.9
   160,'',   138, 1, 1, 1, 1, 1.0354133, -94.485545, 1.1, 0.9, 1.1, 0.9
   161,'',   138, 1, 1, 1, 1, 1.0352796, -94.502336, 1.1, 0.9, 1.1, 0.9
   162,'',   345, 1, 1, 1, 1, 1.0288787, -91.176775, 1.1, 0.9, 1.1, 0.9
   163,'',   138, 1, 1, 1, 1, 1.0268151, -91.914162, 1.1, 0.9, 1.1, 0.9
   164,'',   138, 1, 1, 1, 1, 1.025773, -92.043287, 1.1, 0.9, 1.1, 0.9
   165,'',   345, 1, 1, 1, 1, 1.0363791, -79.085207, 1.1, 0.9, 1.1, 0.9
   166,'',   138, 1, 1, 1, 1, 1.0339546, -79.956243, 1.1, 0.9, 1.1, 0.9
   167,'',  13.8, 2, 1, 1, 1, 1.04, -78.618314, 1.1, 0.9, 1.1, 0.9
   168,'',  13.8, 2, 1, 1, 1, 1.04, -78.311838, 1.1, 0.9, 1.1, 0.9
   169,'',  13.8, 2, 1, 1, 1, 1.04, -77.970668, 1.1, 0.9, 1.1, 0.9
   170,'',   138, 1, 1, 1, 1, 1.0301656, -79.361681, 1.1, 0.9, 1.1, 0.9
   171,'',   138, 1, 1, 1, 1, 1.0300817, -79.372852, 1.1, 0.9, 1.1, 0.9
   172,'',   138, 1, 1, 1, 1, 1.0252408, -84.163578, 1.1, 0.9, 1.1, 0.9
   173,'',   138, 1, 1, 1, 1, 1.0252245, -84.165365, 1.1, 0.9, 1.1, 0.9
   174,'',   138, 1, 1, 1, 1, 1.0252056, -84.16764, 1.1, 0.9, 1.1, 0.9
   175,'',   345, 1, 1, 1, 1, 0.98649641, -65.492824, 1.1, 0.9, 1.1, 0.9
   176,'',   138, 1, 1, 1, 1, 0.98649641, -65.492824, 1.1, 0.9, 1.1, 0.9
   177,'',   138, 1, 1, 1, 1, 0.98643967, -65.500361, 1.1, 0.9, 1.1, 0.9
   178,'',   138, 1, 1, 1, 1, 0.9864525, -65.497792, 1.1, 0.9, 1.1, 0.9
   179,'',   138, 1, 1, 1, 1, 1.0142609, -98.011479, 1.1, 0.9, 1.1, 0.9
   180,'',   138, 1, 1, 1, 1, 1.0141217, -98.027043, 1.1, 0.9, 1.1, 0.9
   181,'',   138, 1, 1, 1, 1, 1.0071281, -85.184428, 1.1, 0.9, 1.1, 0.9
   182,'',   138, 1, 1, 1, 1, 1.0065153, -85.260559, 1.1, 0.9, 1.1, 0.9
   183,'',   138, 1, 1, 1, 1, 0.98123605, -62.96633, 1.1, 0.9, 1.1, 0.9
   184,'',   138, 1, 1, 1, 1, 0.98106378, -62.987752, 1.1, 0.9, 1.1, 0.9
   185,'',   138, 1, 1, 1, 1, 1.0246866, -79.915468, 1.1, 0.9, 1.1, 0.9
   186,'',   138, 1, 1, 1, 1, 1.0244058, -79.948643, 1.1, 0.9, 1.1, 0.9
   187,'',   138, 1, 1, 1, 1, 1.0235613, -96.691704, 1.1, 0.9, 1.1, 0.9
   188,'',   138, 1, 1, 1, 1, 1.023458, -96.703071, 1.1, 0.9, 1.1, 0.9
   189,'',   138, 1, 1, 1, 1, 1.0332902, -95.232607, 1.1, 0.9, 1.1, 0.9
   190,'',   138, 1, 1, 1, 1, 1.0332183, -95.240161, 1.1, 0.9, 1.1, 0.9
   191,'',   138, 1, 1, 1, 1, 1.0335962, -94.298575, 1.1, 0.9, 1.1, 0.9
   192,'',   138, 1, 1, 1, 1, 1.0335011, -94.309753, 1.1, 0.9, 1.1, 0.9
   193,'',   138, 1, 1, 1, 1, 1.0281085, -94.744502, 1.1, 0.9, 1.1, 0.9
   194,'',   138, 1, 1, 1, 1, 1.0279396, -94.764415, 1.1, 0.9, 1.1, 0.9
   195,'',   345, 1, 1, 1, 1, 1.0295963, -91.035082, 1.1, 0.9, 1.1, 0.9
   196,'',   138, 1, 1, 1, 1, 1.0251828, -92.441274, 1.1, 0.9, 1.1, 0.9
   197,'',  13.8, 2, 1, 1, 1, 1.04, -89.329829, 1.1, 0.9, 1.1, 0.9
   198,'',  13.8, 2, 1, 1, 1, 1.04, -89.566706, 1.1, 0.9, 1.1, 0.9
   199,'',   138, 1, 1, 1, 1, 1.0243383, -92.534751, 1.1, 0.9, 1.1, 0.9
   200,'',   138, 1, 1, 1, 1, 1.024118, -93.139675, 1.1, 0.9, 1.1, 0.9
...
0 / END OF BUS DATA, BEGIN LOAD DATA
2, '1', 1, 1, 1, 27.139, 7.237, 0, 0, 0, 0, 1, 1, 0
4, '1', 1, 1, 1, 84.135, 22.436, 0, 0, 0, 0, 1, 1, 0
6, '1', 1, 1, 1, 1.338, 0.357, 0, 0, 0, 0, 1, 1, 0
11, '1', 1, 1, 1, 0.875, 0.233, 0, 0, 0, 0, 1, 1, 0
13, '1', 1, 1, 1, 16.536, 4.41, 0, 0, 0, 0, 1, 1, 0
20, '1', 1, 1, 1, 1.608, 0.429, 0, 0, 0, 0, 1, 1, 0
22, '1', 1, 1, 1, 94.287, 25.143, 0, 0, 0, 0, 1, 1, 0
25, '1', 1, 1, 1, 0.792, 0.211, 0, 0, 0, 0, 1, 1, 0
26, '1', 1, 1, 1, 7.518, 2.005, 0, 0, 0, 0, 1, 1, 0
28, '1', 1, 1, 1, 21.839, 5.824, 0, 0, 0, 0, 1, 1, 0
30, '1', 1, 1, 1, 63.39, 16.904, 0, 0, 0, 0, 1, 1, 0
32, '1', 1, 1, 1, 3.456, 0.922, 0, 0, 0, 0, 1, 1, 0
34, '1', 1, 1, 1, 8.848, 2.359, 0, 0, 0, 0, 1, 1, 0
36, '1', 1, 1, 1, 15.343, 4.091, 0, 0, 0, 0, 1, 1, 0
38, '1', 1, 1, 1, 0.054, 0.014, 0, 0, 0, 0, 1, 1, 0
41, '1', 1, 1, 1, 20.125, 5.367, 0, 0, 0, 0, 1, 1, 0
43, '1', 1, 1, 1, 1.579, 0.421, 0, 0, 0, 0, 1, 1, 0
45, '1', 1, 1, 1, 1.288, 0.343, 0, 0, 0, 0, 1, 1, 0
47, '1', 1, 1, 1, 15.065, 4.017, 0, 0, 0, 0, 1, 1, 0
51, '1', 1, 1, 1, 0.125, 0.033, 0, 0, 0, 0, 1, 1, 0
52, '1', 1, 1, 1, 8.278, 2.207, 0, 0, 0, 0, 1, 1, 0
54, '1', 1, 1, 1, 22.072, 5.886, 0, 0, 0, 0, 1, 1, 0
56, '1', 1, 1, 1, 0.797, 0.213, 0, 0, 0, 0, 1, 1, 0
59, '1', 1, 1, 1, 62.715, 16.724, 0, 0, 0, 0, 1, 1, 0
61, '1', 1, 1, 1, 0.071, 0.019, 0, 0, 0, 0, 1, 1, 0
64, '1', 1, 1, 1, 22.051, 5.88, 0, 0, 0, 0, 1, 1, 0
67, '1', 1, 1, 1, 1.617, 0.431, 0, 0, 0, 0, 1, 1, 0
69, '1', 1, 1, 1, 5.886, 1.57, 0, 0, 0, 0, 1, 1, 0
75, '1', 1, 1, 1, 3.361, 0.896, 0, 0, 0, 0, 1, 1, 0
77, '1', 1, 1, 1, 2.895, 0.772, 0, 0, 0, 0, 1, 1, 0
79, '1', 1, 1, 1, 0.175, 0.047, 0, 0, 0, 0, 1, 1, 0
84, '1', 1, 1, 1, 21.734, 5.796, 0, 0, 0, 0, 1, 1, 0
86, '1', 1, 1, 1, 6.226, 1.66, 0, 0, 0, 0, 1, 1, 0
88, '1', 1, 1, 1, 2.188, 0.583, 0, 0, 0, 0, 1, 1, 0
90, '1', 1, 1, 1, 3.742, 0.998, 0, 0, 0, 0, 1, 1, 0
92, '1', 1, 1, 1, 29.889, 7.971, 0, 0, 0, 0, 1, 1, 0
94, '1', 1, 1, 1, 3.306, 0.882, 0, 0, 0, 0, 1, 1, 0
96, '1', 1, 1, 1, 15.627, 4.167, 0, 0, 0, 0, 1, 1, 0
98, '1', 1, 1, 1, 17.049, 4.546, 0, 0, 0, 0, 1, 1, 0
100, '1', 1, 1, 1, 4.692, 1.251, 0, 0, 0, 0, 1, 1, 0
101, '1', 1, 1, 1, 0.309, 0.082, 0, 0, 0, 0, 1, 1, 0
103, '1', 1, 1, 1, 13.733, 3.662, 0, 0, 0, 0, 1, 1, 0
105, '1', 1, 1, 1, 28.433, 7.582, 0, 0, 0, 0, 1, 1, 0
107, '1', 1, 1, 1, 5.665, 1.511, 0, 0, 0, 0, 1, 1, 0
109, '1', 1, 1, 1, 16.513, 4.403, 0, 0, 0, 0, 1, 1, 0
111, '1', 1, 1, 1, 21.617, 5.764, 0, 0, 0, 0, 1, 1, 0
113, '1', 1, 1, 1, 16.277, 4.341, 0, 0, 0, 0, 1, 1, 0
115, '1', 1, 1, 1, 1.791, 0.478, 0, 0, 0, 0, 1, 1, 0
116, '1', 1, 1, 1, 1.097, 0.292, 0, 0, 0, 0, 1, 1, 0
118, '1', 1, 1, 1, 3.126, 0.834, 0, 0, 0, 0, 1, 1, 0
120, '1', 1, 1, 1, 14.084, 3.756, 0, 0, 0, 0, 1, 1, 0
122, '1', 1, 1, 1, 33.837, 9.023, 0, 0, 0, 0, 1, 1, 0
130, '1', 1, 1, 1, 45.941, 12.251, 0, 0, 0, 0, 1, 1, 0
132, '1', 1, 1, 1, 8.746, 2.332, 0, 0, 0, 0, 1, 1, 0
134, '1', 1, 1, 1, 19.601, 5.227, 0, 0, 0, 0, 1, 1, 0
136, '1', 1, 1, 1, 16.966, 4.524, 0, 0, 0, 0, 1, 1, 0
138, '1', 1, 1, 1, 27.856, 7.428, 0, 0, 0, 0, 1, 1, 0
140, '1', 1, 1, 1, 0.088, 0.024, 0, 0, 0, 0, 1, 1, 0
142, '1', 1, 1, 1, 67.197, 17.919, 0, 0, 0, 0, 1, 1, 0
148, '1', 1, 1, 1, 36.409, 9.709, 0, 0, 0, 0, 1, 1, 0
150, '1', 1, 1, 1, 0.532, 0.142, 0, 0, 0, 0, 1, 1, 0
153, '1', 1, 1, 1, 32.327, 8.621, 0, 0, 0, 0, 1, 1, 0
155, '1', 1, 1, 1, 23.197, 6.186, 0, 0, 0, 0, 1, 1, 0
157, '1', 1, 1, 1, 46.925, 12.513, 0, 0, 0, 0, 1, 1, 0
159, '1', 1, 1, 1, 14.489, 3.864, 0, 0, 0, 0, 1, 1, 0
161, '1', 1, 1, 1, 9.186, 2.449, 0, 0, 0, 0, 1, 1, 0
164, '1', 1, 1, 1, 62.236, 16.596, 0, 0, 0, 0, 1, 1, 0
171, '1', 1, 1, 1, 5.688, 1.517, 0, 0, 0, 0, 1, 1, 0
173, '1', 1, 1, 1, 1.11, 0.296, 0, 0, 0, 0, 1, 1, 0
174, '1', 1, 1, 1, 2.585, 0.689, 0, 0, 0, 0, 1, 1, 0
177, '1', 1, 1, 1, 3.657, 0.975, 0, 0, 0, 0, 1, 1, 0
178, '1', 1, 1, 1, 2.838, 0.757, 0, 0, 0, 0, 1, 1, 0
180, '1', 1, 1, 1, 8.963, 2.39, 0, 0, 0, 0, 1, 1, 0
182, '1', 1, 1, 1, 37.973, 10.126, 0, 0, 0, 0, 1, 1, 0
184, '1', 1, 1, 1, 12.568, 3.352, 0, 0, 0, 0, 1, 1, 0
186, '1', 1, 1, 1, 20.844, 5.558, 0, 0, 0, 0, 1, 1, 0
188, '1', 1, 1, 1, 7.006, 1.868, 0, 0, 0, 0, 1, 1, 0
190, '1', 1, 1, 1, 4.98, 1.328, 0, 0, 0, 0, 1, 1, 0
192, '1', 1, 1, 1, 5.819, 1.552, 0, 0, 0, 0, 1, 1, 0
194, '1', 1, 1, 1, 10.156, 2.708, 0, 0, 0, 0, 1, 1, 0
199, '1', 1, 1, 1, 54.781, 14.608, 0, 0, 0, 0, 1, 1, 0
201, '1', 1, 1, 1, 5.636, 1.503, 0, 0, 0, 0, 1, 1, 0
203, '1', 1, 1, 1, 1.66, 0.443, 0, 0, 0, 0, 1, 1, 0
204, '1', 1, 1, 1, 16.163, 4.31, 0, 0, 0, 0, 1, 1, 0
206, '1', 1, 1, 1, 1.065, 0.284, 0, 0, 0, 0, 1, 1, 0
207, '1', 1, 1, 1, 7.989, 2.13, 0, 0, 0, 0, 1, 1, 0
209, '1', 1, 1, 1, 36.424, 9.713, 0, 0, 0, 0, 1, 1, 0
211, '1', 1, 1, 1, 11.896, 3.172, 0, 0, 0, 0, 1, 1, 0
213, '1', 1, 1, 1, 34.502, 9.201, 0, 0, 0, 0, 1, 1, 0
215, '1', 1, 1, 1, 29.899, 7.973, 0, 0, 0, 0, 1, 1, 0
217, '1', 1, 1, 1, 24.519, 6.538, 0, 0, 0, 0, 1, 1, 0
219, '1', 1, 1, 1, 0.118, 0.031, 0, 0, 0, 0, 1, 1, 0
227, '1', 1, 1, 1, 2.493, 0.665, 0, 0, 0, 0, 1, 1, 0
229, '1', 1, 1, 1, 24.862, 6.63, 0, 0, 0, 0, 1, 1, 0
234, '1', 1, 1, 1, 38.022, 10.139, 0, 0, 0, 0, 1, 1, 0
237, '1', 1, 1, 1, 0.96, 0.256, 0, 0, 0, 0, 1, 1, 0
239, '1', 1, 1, 1, 13.58, 3.621, 0, 0, 0, 0, 1, 1, 0
241, '1', 1, 1, 1, 6.987, 1.863, 0, 0, 0, 0, 1, 1, 0
243, '1', 1, 1, 1, 47.217, 12.591, 0, 0, 0, 0, 1, 1, 0
245, '1', 1, 1, 1, 4.189, 1.117, 0, 0, 0, 0, 1, 1, 0
252, '1', 1, 1, 1, 52.812, 14.083, 0, 0, 0, 0, 1, 1, 0
259, '1', 1, 1, 1, 3.631, 0.968, 0, 0, 0, 0, 1, 1, 0
261, '1', 1, 1, 1, 8.588, 2.29, 0, 0, 0, 0, 1, 1, 0
266, '1', 1, 1, 1, 39.175, 10.447, 0, 0, 0, 0, 1, 1, 0
268, '1', 1, 1, 1, 41.462, 11.057, 0, 0, 0, 0, 1, 1, 0
270, '1', 1, 1, 1, 2.407, 0.642, 0, 0, 0, 0, 1, 1, 0
273, '1', 1, 1, 1, 3.36, 0.896, 0, 0, 0, 0, 1, 1, 0
277, '1', 1, 1, 1, 0.257, 0.068, 0, 0, 0, 0, 1, 1, 0
278, '1', 1, 1, 1, 3.658, 0.975, 0, 0, 0, 0, 1, 1, 0
280, '1', 1, 1, 1, 7.54, 2.011, 0, 0, 0, 0, 1, 1, 0
282, '1', 1, 1, 1, 53.917, 14.378, 0, 0, 0, 0, 1, 1, 0
284, '1', 1, 1, 1, 11.556, 3.081, 0, 0, 0, 0, 1, 1, 0
286, '1', 1, 1, 1, 3.8, 1.013, 0, 0, 0, 0, 1, 1, 0
288, '1', 1, 1, 1, 36.845, 9.825, 0, 0, 0, 0, 1, 1, 0
290, '1', 1, 1, 1, 1.696, 0.452, 0, 0, 0, 0, 1, 1, 0
292, '1', 1, 1, 1, 4.83, 1.288, 0, 0, 0, 0, 1, 1, 0
294, '1', 1, 1, 1, 9.062, 2.417, 0, 0, 0, 0, 1, 1, 0
296, '1', 1, 1, 1, 2.703, 0.721, 0, 0, 0, 0, 1, 1, 0
299, '1', 1, 1, 1, 5.156, 1.375, 0, 0, 0, 0, 1, 1, 0
303, '1', 1, 1, 1, 36.133, 9.635, 0, 0, 0, 0, 1, 1, 0
307, '1', 1, 1, 1, 33.839, 9.024, 0, 0, 0, 0, 1, 1, 0
309, '1', 1, 1, 1, 3.196, 0.852, 0, 0, 0, 0, 1, 1, 0
311, '1', 1, 1, 1, 20.146, 5.372, 0, 0, 0, 0, 1, 1, 0
313, '1', 1, 1, 1, 4.402, 1.174, 0, 0, 0, 0, 1, 1, 0
315, '1', 1, 1, 1, 0.148, 0.039, 0, 0, 0, 0, 1, 1, 0
317, '1', 1, 1, 1, 1.563, 0.417, 0, 0, 0, 0, 1, 1, 0
321, '1', 1, 1, 1, 95.38, 25.435, 0, 0, 0, 0, 1, 1, 0
323, '1', 1, 1, 1, 20.145, 5.372, 0, 0, 0, 0, 1, 1, 0
325, '1', 1, 1, 1, 46.039, 12.277, 0, 0, 0, 0, 1, 1, 0
327, '1', 1, 1, 1, 76.767, 20.471, 0, 0, 0, 0, 1, 1, 0
329, '1', 1, 1, 1, 11.959, 3.189, 0, 0, 0, 0, 1, 1, 0
331, '1', 1, 1, 1, 19.842, 5.291, 0, 0, 0, 0, 1, 1, 0
334, '1', 1, 1, 1, 0.174, 0.046, 0, 0, 0, 0, 1, 1, 0
335, '1', 1, 1, 1, 0.289, 0.077, 0, 0, 0, 0, 1, 1, 0
337, '1', 1, 1, 1, 2.363, 0.63, 0, 0, 0, 0, 1, 1, 0
339, '1', 1, 1, 1, 31.28, 8.341, 0, 0, 0, 0, 1, 1, 0
341, '1', 1, 1, 1, 10.778, 2.874, 0, 0, 0, 0, 1, 1, 0
343, '1', 1, 1, 1, 0.889, 0.237, 0, 0, 0, 0, 1, 1, 0
344, '1', 1, 1, 1, 0.86, 0.229, 0, 0, 0, 0, 1, 1, 0
346, '1', 1, 1, 1, 30.172, 8.046, 0, 0, 0, 0, 1, 1, 0
348, '1', 1, 1, 1, 38.446, 10.252, 0, 0, 0, 0, 1, 1, 0
355, '1', 1, 1, 1, 12.659, 3.376, 0, 0, 0, 0, 1, 1, 0
357, '1', 1, 1, 1, 24.801, 6.614, 0, 0, 0, 0, 1, 1, 0
359, '1', 1, 1, 1, 5.162, 1.377, 0, 0, 0, 0, 1, 1, 0
364, '1', 1, 1, 1, 10.563, 2.817, 0, 0, 0, 0, 1, 1, 0
366, '1', 1, 1, 1, 35.819, 9.552, 0, 0, 0, 0, 1, 1, 0
368, '1', 1, 1, 1, 5.265, 1.404, 0, 0, 0, 0, 1, 1, 0
370, '1', 1, 1, 1, 16.365, 4.364, 0, 0, 0, 0, 1, 1, 0
373, '1', 1, 1, 1, 18.284, 4.876, 0, 0, 0, 0, 1, 1, 0
375, '1', 1, 1, 1, 15.703, 4.187, 0, 0, 0, 0, 1, 1, 0
377, '1', 1, 1, 1, 31.368, 8.365, 0, 0, 0, 0, 1, 1, 0
379, '1', 1, 1, 1, 5.419, 1.445, 0, 0, 0, 0, 1, 1, 0
381, '1', 1, 1, 1, 3.516, 0.938, 0, 0, 0, 0, 1, 1, 0
383, '1', 1, 1, 1, 10.392, 2.771, 0, 0, 0, 0, 1, 1, 0
385, '1', 1, 1, 1, 16.296, 4.346, 0, 0, 0, 0, 1, 1, 0
397, '1', 1, 1, 1, 18.364, 4.897, 0, 0, 0, 0, 1, 1, 0
398, '1', 1, 1, 1, 7.707, 2.055, 0, 0, 0, 0, 1, 1, 0
400, '1', 1, 1, 1, 8.149, 2.173, 0, 0, 0, 0, 1, 1, 0
402, '1', 1, 1, 1, 36.795, 9.812, 0, 0, 0, 0, 1, 1, 0
404, '1', 1, 1, 1, 6.997, 1.866, 0, 0, 0, 0, 1, 1, 0
406, '1', 1, 1, 1, 2.187, 0.583, 0, 0, 0, 0, 1, 1, 0
416, '1', 1, 1, 1, 3.844, 1.025, 0, 0, 0, 0, 1, 1, 0
418, '1', 1, 1, 1, 28.308, 7.549, 0, 0, 0, 0, 1, 1, 0
420, '1', 1, 1, 1, 1.85, 0.493, 0, 0, 0, 0, 1, 1, 0
422, '1', 1, 1, 1, 31.184, 8.316, 0, 0, 0, 0, 1, 1, 0
424, '1', 1, 1, 1, 65.428, 17.447, 0, 0, 0, 0, 1, 1, 0
427, '1', 1, 1, 1, 5.108, 1.362, 0, 0, 0, 0, 1, 1, 0
446, '1', 1, 1, 1, 39.463, 10.523, 0, 0, 0, 0, 1, 1, 0
448, '1', 1, 1, 1, 19.975, 5.327, 0, 0, 0, 0, 1, 1, 0
450, '1', 1, 1, 1, 0.389, 0.104, 0, 0, 0, 0, 1, 1, 0
451, '1', 1, 1, 1, 0.767, 0.205, 0, 0, 0, 0, 1, 1, 0
452, '1', 1, 1, 1, 4.649, 1.24, 0, 0, 0, 0, 1, 1, 0
459, '1', 1, 1, 1, 31.015, 8.271, 0, 0, 0, 0, 1, 1, 0
460, '1', 1, 1, 1, 9.142, 2.438, 0, 0, 0, 0, 1, 1, 0
461, '1', 1, 1, 1, 40.815, 10.884, 0, 0, 0, 0, 1, 1, 0
465, '1', 1, 1, 1, 4.346, 1.159, 0, 0, 0, 0, 1, 1, 0
466, '1', 1, 1, 1, 15.04, 4.011, 0, 0, 0, 0, 1, 1, 0
467, '1', 1, 1, 1, 0.371, 0.099, 0, 0, 0, 0, 1, 1, 0
468, '1', 1, 1, 1, 1.729, 0.461, 0, 0, 0, 0, 1, 1, 0
469, '1', 1, 1, 1, 57.195, 15.252, 0, 0, 0, 0, 1, 1, 0
470, '1', 1, 1, 1, 19.561, 5.216, 0, 0, 0, 0, 1, 1, 0
472, '1', 1, 1, 1, 17.252, 4.601, 0, 0, 0, 0, 1, 1, 0
473, '1', 1, 1, 1, 0.459, 0.122, 0, 0, 0, 0, 1, 1, 0
474, '1', 1, 1, 1, 74.412, 19.844, 0, 0, 0, 0, 1, 1, 0
475, '1', 1, 1, 1, 0.103, 0.027, 0, 0, 0, 0, 1, 1, 0
476, '1', 1, 1, 1, 37.953, 10.121, 0, 0, 0, 0, 1, 1, 0
477, '1', 1, 1, 1, 10.872, 2.899, 0, 0, 0, 0, 1, 1, 0
478, '1', 1, 1, 1, 3.814, 1.017, 0, 0, 0, 0, 1, 1, 0
485, '1', 1, 1, 1, 17.678, 4.714, 0, 0, 0, 0, 1, 1, 0
486, '1', 1, 1, 1, 43.457, 11.588, 0, 0, 0, 0, 1, 1, 0
487, '1', 1, 1, 1, 5.363, 1.43, 0, 0, 0, 0, 1, 1, 0
488, '1', 1, 1, 1, 43.563, 11.617, 0, 0, 0, 0, 1, 1, 0
489, '1', 1, 1, 1, 1.303, 0.348, 0, 0, 0, 0, 1, 1, 0
490, '1', 1, 1, 1, 13.702, 3.654, 0, 0, 0, 0, 1, 1, 0
491, '1', 1, 1, 1, 75.791, 20.211, 0, 0, 0, 0, 1, 1, 0
492, '1', 1, 1, 1, 24.798, 6.613, 0, 0, 0, 0, 1, 1, 0
493, '1', 1, 1, 1, 1.686, 0.449, 0, 0, 0, 0, 1, 1, 0
495, '1', 1, 1, 1, 26.088, 6.957, 0, 0, 0, 0, 1, 1, 0
499, '1', 1, 1, 1, 77.564, 20.684, 0, 0, 0, 0, 1, 1, 0
500, '1', 1, 1, 1, 8.293, 2.211, 0, 0, 0, 0, 1, 1, 0
0 / END OF LOAD DATA, BEGIN FIXED SHUNT DATA
0 / END OF FIXED SHUNT DATA, BEGIN GENERATOR DATA
9, '1', 252.50545, -94.16, 359.66, -94.16, 1.04, 0, 0, 0, 1.0, 0, 0, 1, 1, 1, 771.8, 231.54, 1, 1, 0, 1, 0, 1, 0, 1, 0, 1
16, '1', 0, 0, 163.56, -36.44, 1.036094, 0, 0, 0, 1.0, 0, 0, 1, 0, 1, 444.45, 133.33, 1, 1, 0, 1, 0, 1, 0, 1, 0, 1
17, '1', 888.9, -72.89, 327.12, -72.89, 1.04, 0, 0, 0, 1.0, 0, 0, 1, 1, 1, 888.9, 266.67, 1, 1, 0, 1, 0, 1, 0, 1, 0, 1
18, '1', 157.6, -12.92, 58, -12.92, 1.04, 0, 0, 0, 1.0, 0, 0, 1, 1, 1, 157.6, 47.28, 1, 1, 0, 1, 0, 1, 0, 1, 0, 1
49, '1', 1.3, -0.16, 0.61, -0.16, 1.0157535, 0, 0, 0, 1.0, 0, 0, 1, 1, 1, 1.3, 0.39, 1, 1, 0, 1, 0, 1, 0, 1, 0, 1
50, '1', 2.6, -0.32, 1.21, -0.32, 1.0160322, 0, 0, 0, 1.0, 0, 0, 1, 1, 1, 2.6, 0.78, 1, 1, 0, 1, 0, 1, 0, 1, 0, 1
63, '1', 0, 1.63, 1.63, -0.36, 1.0197321, 0, 0, 0, 1.0, 0, 0, 1, 0, 1, 3.2, 0.96, 1, 1, 0, 1, 0, 1, 0, 1, 0, 1
71, '1', 0.849, -0.2, 1.54, -0.2, 1.024286, 0, 0, 0, 1.0, 0, 0, 1, 1, 1, 0.849, 0, 1, 1, 0, 1, 0, 1, 0, 1, 0, 1
72, '1', 0.425, -0.1, 0.77, -0.1, 1.0247053, 0, 0, 0, 1.0, 0, 0, 1, 1, 1, 0.425, 0, 1, 1, 0, 1, 0, 1, 0, 1, 0, 1
73, '1', 0.297, -0.07, 0.54, -0.07, 1.02508, 0, 0, 0, 1.0, 0, 0, 1, 1, 1, 0.297, 0, 1, 1, 0, 1, 0, 1, 0, 1, 0, 1
82, '1', 76.827, -17.73, 138.97, -17.73, 1.04, 0, 0, 0, 1.0, 0, 0, 1, 1, 1, 76.827, 0, 1, 1, 0, 1, 0, 1, 0, 1, 0, 1
125, '1', 0, 5.745, 62.21, -7.94, 1.0361328, 0, 0, 0, 1.0, 0, 0, 1, 0, 1, 34.391, 0, 1, 1, 0, 1, 0, 1, 0, 1, 0, 1
126, '1', 0, 10.578, 62.21, -7.94, 1.0361328, 0, 0, 0, 1.0, 0, 0, 1, 0, 1, 34.391, 0, 1, 1, 0, 1, 0, 1, 0, 1, 0, 1
127, '1', 0, 4.874, 62.21, -7.94, 1.0361328, 0, 0, 0, 1.0, 0, 0, 1, 0, 1, 34.391, 0, 1, 1, 0, 1, 0, 1, 0, 1, 0, 1
128, '1', 0, 14.508, 62.21, -7.94, 1.0361328, 0, 0, 0, 1.0, 0, 0, 1, 0, 1, 34.391, 0, 1, 1, 0, 1, 0, 1, 0, 1, 0, 1
144, '1', 602.55, -49.41, 221.74, -49.41, 1.04, 0, 0, 0, 1.0, 0, 0, 1, 1, 1, 602.55, 180.76, 1, 1, 0, 1, 0, 1, 0, 1, 0, 1
145, '1', 602.55, -49.41, 221.74, -49.41, 1.04, 0, 0, 0, 1.0, 0, 0, 1, 1, 1, 602.55, 180.76, 1, 1, 0, 1, 0, 1, 0, 1, 0, 1
167, '1', 41.078, -9.48, 74.3, -9.48, 1.04, 0, 0, 0, 1.0, 0, 0, 1, 1, 1, 41.078, 0, 1, 1, 0, 1, 0, 1, 0, 1, 0, 1
168, '1', 41.078, -9.48, 74.3, -9.48, 1.04, 0, 0, 0, 1.0, 0, 0, 1, 1, 1, 41.078, 0, 1, 1, 0, 1, 0, 1, 0, 1, 0, 1
169, '1', 82.156, -18.96, 148.61, -18.96, 1.04, 0, 0, 0, 1.0, 0, 0, 1, 1, 1, 82.156, 0, 1, 1, 0, 1, 0, 1, 0, 1, 0, 1
197, '1', 103.38688, -35.82, 136.82, -35.82, 1.04, 0, 0, 0, 1.0, 0, 0, 1, 1, 1, 293.6, 88.08, 1, 1, 0, 1, 0, 1, 0, 1, 0, 1
198, '1', 126.44277, -25.29, 96.6, -25.29, 1.04, 0, 0, 0, 1.0, 0, 0, 1, 1, 1, 207.3, 62.19, 1, 1, 0, 1, 0, 1, 0, 1, 0, 1
222, '1', 1.104, -0.25, 2, -0.25, 1.0398092, 0, 0, 0, 1.0, 0, 0, 1, 1, 1, 1.104, 0, 1, 1, 0, 1, 0, 1, 0, 1, 0, 1
223, '1', 3.821, -0.88, 6.91, -0.88, 1.04, 0, 0, 0, 1.0, 0, 0, 1, 1, 1, 3.821, 0, 1, 1, 0, 1, 0, 1, 0, 1, 0, 1
224, '1', 108.522, -25.05, 196.3, -25.05, 1.04, 0, 0, 0, 1.0, 0, 0, 1, 1, 1, 108.522, 0, 1, 1, 0, 1, 0, 1, 0, 1, 0, 1
225, '1', 109.286, -25.23, 197.68, -25.23, 1.04, 0, 0, 0, 1.0, 0, 0, 1, 1, 1, 109.286, 0, 1, 1, 0, 1, 0, 1, 0, 1, 0, 1
231, '1', 0, 1.35, 1.35, -0.35, 1.018206, 0, 0, 0, 1.0, 0, 0, 1, 0, 1, 2.9, 0.87, 1, 1, 0, 1, 0, 1, 0, 1, 0, 1
248, '1', 0, 7.185, 67.8, -14.79, 1.0406672, 0, 0, 0, 1.0, 0, 0, 1, 0, 1, 133.2, 39.96, 1, 1, 0, 1, 0, 1, 0, 1, 0, 1
249, '1', 0, 0, 67.8, -14.79, 1.0406672, 0, 0, 0, 1.0, 0, 0, 1, 0, 1, 133.2, 39.96, 1, 1, 0, 1, 0, 1, 0, 1, 0, 1
250, '1', 0, 0, 271.2, -59.14, 1.0406672, 0, 0, 0, 1.0, 0, 0, 1, 0, 1, 532.8, 159.84, 1, 1, 0, 1, 0, 1, 0, 1, 0, 1
254, '1', 0, 1.91, 1.91, -0.5, 1.0171447, 0, 0, 0, 1.0, 0, 0, 1, 0, 1, 4.1, 1.23, 1, 1, 0, 1, 0, 1, 0, 1, 0, 1
255, '1', 0, 1.54, 1.54, -0.4, 1.0171447, 0, 0, 0, 1.0, 0, 0, 1, 0, 1, 3.3, 0.99, 1, 1, 0, 1, 0, 1, 0, 1, 0, 1
256, '1', 0, 1.35, 1.35, -0.35, 1.0171447, 0, 0, 0, 1.0, 0, 0, 1, 0, 1, 2.9, 0.87, 1, 1, 0, 1, 0, 1, 0, 1, 0, 1
257, '1', 0, 2.52, 2.52, -0.66, 1.0171447, 0, 0, 0, 1.0, 0, 0, 1, 0, 1, 5.4, 1.62, 1, 1, 0, 1, 0, 1, 0, 1, 0, 1
258, '1', 0, 0.51, 0.51, -0.13, 1.0171447, 0, 0, 0, 1.0, 0, 0, 1, 0, 1, 1.1, 0.33, 1, 1, 0, 1, 0, 1, 0, 1, 0, 1
264, '1', 0, 12.152, 19.95, -4.35, 1.0312871, 0, 0, 0, 1.0, 0, 0, 1, 0, 1, 39.2, 11.76, 1, 1, 0, 1, 0, 1, 0, 1, 0, 1
265, '1', 0, 5.4, 5.4, -1.18, 1.0312871, 0, 0, 0, 1.0, 0, 0, 1, 0, 1, 10.6, 3.18, 1, 1, 0, 1, 0, 1, 0, 1, 0, 1
275, '1', 0, 17.932, 51.51, -11.23, 1.0315, 0, 0, 0, 1.0, 0, 0, 1, 0, 1, 101.2, 30.36, 1, 1, 0, 1, 0, 1, 0, 1, 0, 1
301, '1', 2.9, -0.35, 1.35, -0.35, 1.0226102, 0, 0, 0, 1.0, 0, 0, 1, 1, 1, 2.9, 0.87, 1, 1, 0, 1, 0, 1, 0, 1, 0, 1
302, '1', 2.9, -0.35, 1.35, -0.35, 1.0226306, 0, 0, 0, 1.0, 0, 0, 1, 1, 1, 2.9, 0.87, 1, 1, 0, 1, 0, 1, 0, 1, 0, 1
305, '1', 0.212, -0.05, 0.38, -0.05, 1.0184362, 0, 0, 0, 1.0, 0, 0, 1, 1, 1, 0.212, 0, 1, 1, 0, 1, 0, 1, 0, 1, 0, 1
306, '1', 0.509, -0.12, 0.92, -0.12, 1.0186765, 0, 0, 0, 1.0, 0, 0, 1, 1, 1, 0.509, 0, 1, 1, 0, 1, 0, 1, 0, 1, 0, 1
319, '1', 8.98, -2.07, 16.24, -2.07, 1.04, 0, 0, 0, 1.0, 0, 0, 1, 1, 1, 8.98, 0, 1, 1, 0, 1, 0, 1, 0, 1, 0, 1
350, '1', 3.184, -0.74, 5.76, -0.74, 1.04, 0, 0, 0, 1.0, 0, 0, 1, 1, 1, 3.184, 0, 1, 1, 0, 1, 0, 1, 0, 1, 0, 1
351, '1', 1.316, -0.3, 2.38, -0.3, 1.0380255, 0, 0, 0, 1.0, 0, 0, 1, 1, 1, 1.316, 0, 1, 1, 0, 1, 0, 1, 0, 1, 0, 1
352, '1', 3.057, -0.71, 5.53, -0.71, 1.04, 0, 0, 0, 1.0, 0, 0, 1, 1, 1, 3.057, 0, 1, 1, 0, 1, 0, 1, 0, 1, 0, 1
353, '1', 15.709, -3.63, 28.42, -3.63, 1.04, 0, 0, 0, 1.0, 0, 0, 1, 1, 1, 15.709, 0, 1, 1, 0, 1, 0, 1, 0, 1, 0, 1
361, '1', 0, 0.81, 0.81, -0.18, 1.0250717, 0, 0, 0, 1.0, 0, 0, 1, 0, 1, 1.6, 0.48, 1, 1, 0, 1, 0, 1, 0, 1, 0, 1
362, '1', 0, 5.6, 5.6, -1.22, 1.0250717, 0, 0, 0, 1.0, 0, 0, 1, 0, 1, 11, 3.3, 1, 1, 0, 1, 0, 1, 0, 1, 0, 1
363, '1', 0, 1.63, 1.63, -0.36, 1.0250717, 0, 0, 0, 1.0, 0, 0, 1, 0, 1, 3.2, 0.96, 1, 1, 0, 1, 0, 1, 0, 1, 0, 1
388, '1', 0, 0, 5.09, -1.11, 1.0351888, 0, 0, 0, 1.0, 0, 0, 1, 0, 1, 10, 3, 1, 1, 0, 1, 0, 1, 0, 1, 0, 1
389, '1', 0, 0, 88.23, -19.24, 1.0351888, 0, 0, 0, 1.0, 0, 0, 1, 0, 1, 173.333, 52, 1, 1, 0, 1, 0, 1, 0, 1, 0, 1
390, '1', 0, 0, 88.23, -19.24, 1.0351888, 0, 0, 0, 1.0, 0, 0, 1, 0, 1, 173.333, 52, 1, 1, 0, 1, 0, 1, 0, 1, 0, 1
391, '1', 0, 0, 88.23, -19.24, 1.0351888, 0, 0, 0, 1.0, 0, 0, 1, 0, 1, 173.333, 52, 1, 1, 0, 1, 0, 1, 0, 1, 0, 1
392, '1', 0, 0, 59.25, -12.92, 1.0351888, 0, 0, 0, 1.0, 0, 0, 1, 0, 1, 116.4, 34.92, 1, 1, 0, 1, 0, 1, 0, 1, 0, 1
393, '1', 0, 0, 59.25, -12.92, 1.0351888, 0, 0, 0, 1.0, 0, 0, 1, 0, 1, 116.4, 34.92, 1, 1, 0, 1, 0, 1, 0, 1, 0, 1
394, '1', 0, 0, 59.25, -12.92, 1.0351888, 0, 0, 0, 1.0, 0, 0, 1, 0, 1, 116.4, 34.92, 1, 1, 0, 1, 0, 1, 0, 1, 0, 1
395, '1', 0, 0, 59.25, -12.92, 1.0351888, 0, 0, 0, 1.0, 0, 0, 1, 0, 1, 116.4, 34.92, 1, 1, 0, 1, 0, 1, 0, 1, 0, 1
396, '1', 0, 0, 59.25, -12.92, 1.0351888, 0, 0, 0, 1.0, 0, 0, 1, 0, 1, 116.4, 34.92, 1, 1, 0, 1, 0, 1, 0, 1, 0, 1
409, '1', 32.995064, -11.1, 50.9, -11.1, 1.04, 0, 0, 0, 1.0, 0, 0, 1, 1, 1, 100, 30, 1, 1, 0, 1, 0, 1, 0, 1, 0, 1
410, '1', 0, -1.624, 69.71, -15.2, 1.0420249, 0, 0, 0, 1.0, 0, 0, 1, 0, 1, 136.95, 41.08, 1, 1, 0, 1, 0, 1, 0, 1, 0, 1
411, '1', 0, -3.483, 69.71, -15.2, 1.0420249, 0, 0, 0, 1.0, 0, 0, 1, 0, 1, 136.95, 41.08, 1, 1, 0, 1, 0, 1, 0, 1, 0, 1
412, '1', 0, -3.046, 69.71, -15.2, 1.0420249, 0, 0, 0, 1.0, 0, 0, 1, 0, 1, 136.95, 41.08, 1, 1, 0, 1, 0, 1, 0, 1, 0, 1
413, '1', 0, -7.659, 69.71, -15.2, 1.0420249, 0, 0, 0, 1.0, 0, 0, 1, 0, 1, 136.95, 41.08, 1, 1, 0, 1, 0, 1, 0, 1, 0, 1
414, '1', 36.657516, -12.33, 56.55, -12.33, 1.04, 0, 0, 0, 1.0, 0, 0, 1, 1, 1, 111.1, 33.33, 1, 1, 0, 1, 0, 1, 0, 1, 0, 1
430, '1', 0.212, -0.05, 0.38, -0.05, 1.0391822, 0, 0, 0, 1.0, 0, 0, 1, 1, 1, 0.212, 0, 1, 1, 0, 1, 0, 1, 0, 1, 0, 1
431, '1', 0.701, -0.16, 1.27, -0.16, 1.0393943, 0, 0, 0, 1.0, 0, 0, 1, 1, 1, 0.701, 0, 1, 1, 0, 1, 0, 1, 0, 1, 0, 1
432, '1', 0.255, -0.06, 0.46, -0.06, 1.0391926, 0, 0, 0, 1.0, 0, 0, 1, 1, 1, 0.255, 0, 1, 1, 0, 1, 0, 1, 0, 1, 0, 1
433, '1', 1.422, -0.33, 2.57, -0.33, 1.04, 0, 0, 0, 1.0, 0, 0, 1, 1, 1, 1.422, 0, 1, 1, 0, 1, 0, 1, 0, 1, 0, 1
434, '1', 0.913, -0.21, 1.65, -0.21, 1.0393084, 0, 0, 0, 1.0, 0, 0, 1, 1, 1, 0.913, 0, 1, 1, 0, 1, 0, 1, 0, 1, 0, 1
435, '1', 41.821, -9.65, 75.65, -9.65, 1.04, 0, 0, 0, 1.0, 0, 0, 1, 1, 1, 41.821, 0, 1, 1, 0, 1, 0, 1, 0, 1, 0, 1
436, '1', 41.821, -9.65, 75.65, -9.65, 1.04, 0, 0, 0, 1.0, 0, 0, 1, 1, 1, 41.821, 0, 1, 1, 0, 1, 0, 1, 0, 1, 0, 1
437, '1', 41.821, -9.65, 75.65, -9.65, 1.04, 0, 0, 0, 1.0, 0, 0, 1, 1, 1, 41.821, 0, 1, 1, 0, 1, 0, 1, 0, 1, 0, 1
438, '1', 41.821, -9.65, 75.65, -9.65, 1.04, 0, 0, 0, 1.0, 0, 0, 1, 1, 1, 41.821, 0, 1, 1, 0, 1, 0, 1, 0, 1, 0, 1
439, '1', 41.821, -9.65, 75.65, -9.65, 1.04, 0, 0, 0, 1.0, 0, 0, 1, 1, 1, 41.821, 0, 1, 1, 0, 1, 0, 1, 0, 1, 0, 1
442, '1', 35.634669, -11.99, 54.97, -11.99, 1.04, 0, 0, 0, 1.0, 0, 0, 1, 1, 1, 108, 32.4, 1, 1, 0, 1, 0, 1, 0, 1, 0, 1
443, '1', 57.741362, -19.43, 89.07, -19.43, 1.04, 0, 0, 0, 1.0, 0, 0, 1, 1, 1, 175, 52.5, 1, 1, 0, 1, 0, 1, 0, 1, 0, 1
444, '1', 1.0888371, -0.37, 1.68, -0.37, 1.0352569, 0, 0, 0, 1.0, 0, 0, 1, 1, 1, 3.3, 0.99, 1, 1, 0, 1, 0, 1, 0, 1, 0, 1
455, '1', 0, 28.084, 113.42, -24.73, 1.0300339, 0, 0, 0, 1.0, 0, 0, 1, 0, 1, 222.833, 66.85, 1, 1, 0, 1, 0, 1, 0, 1, 0, 1
456, '1', 0, 30.637, 226.84, -49.47, 1.0300339, 0, 0, 0, 1.0, 0, 0, 1, 0, 1, 445.667, 133.7, 1, 1, 0, 1, 0, 1, 0, 1, 0, 1
458, '1', 0, 0, 0, 0, 1.0272876, 0, 0, 0, 1.0, 0, 0, 1, 0, 1, 109.6, 32.88, 1, 1, 0, 1, 0, 1, 0, 1, 0, 1
463, '1', 7.2, -0.88, 3.36, -0.88, 1.0380965, 0, 0, 0, 1.0, 0, 0, 1, 1, 1, 7.2, 2.16, 1, 1, 0, 1, 0, 1, 0, 1, 0, 1
480, '1', 11.888, -2.74, 21.5, -2.74, 1.04, 0, 0, 0, 1.0, 0, 0, 1, 1, 1, 11.888, 0, 1, 1, 0, 1, 0, 1, 0, 1, 0, 1
481, '1', 9.553, -2.21, 17.28, -2.21, 1.04, 0, 0, 0, 1.0, 0, 0, 1, 1, 1, 9.553, 0, 1, 1, 0, 1, 0, 1, 0, 1, 0, 1
482, '1', 9.553, -2.21, 17.28, -2.21, 1.04, 0, 0, 0, 1.0, 0, 0, 1, 1, 1, 9.553, 0, 1, 1, 0, 1, 0, 1, 0, 1, 0, 1
483, '1', 5.095, -1.18, 9.22, -1.18, 1.04, 0, 0, 0, 1.0, 0, 0, 1, 1, 1, 5.095, 0, 1, 1, 0, 1, 0, 1, 0, 1, 0, 1
484, '1', 5.944, -1.37, 10.75, -1.37, 1.04, 0, 0, 0, 1.0, 0, 0, 1, 1, 1, 5.944, 0, 1, 1, 0, 1, 0, 1, 0, 1, 0, 1
494, '1', 0, 2.7, 2.7, -0.71, 1.0328146, 0, 0, 0, 1.0, 0, 0, 1, 0, 1, 5.8, 1.74, 1, 1, 0, 1, 0, 1, 0, 1, 0, 1
497, '1', 12.737, -2.94, 23.04, -2.94, 1.04, 0, 0, 0, 1.0, 0, 0, 1, 1, 1, 12.737, 0, 1, 1, 0, 1, 0, 1, 0, 1, 0, 1
498, '1', 3.821, -0.88, 6.91, -0.88, 1.0384592, 0, 0, 0, 1.0, 0, 0, 1, 1, 1, 3.821, 0, 1, 1, 0, 1, 0, 1, 0, 1, 0, 1
0 / END OF GENERATOR DATA, BEGIN BRANCH DATA
2, 1, '1', 0.000530993, 0.00313968, 0, 76.5, 76.5, 76.5, 0, 0, 0, 0, 1, 1, 0, 1, 1, 0, 1, 0, 1, 0, 1
44, 1, '1', 0.00547862, 0.0502567, 0.0178098, 250, 250, 250, 0, 0, 0, 0, 1, 1, 0, 1, 1, 0, 1, 0, 1, 0, 1
421, 1, '1', 0.00536892, 0.0515552, 0.0166426, 200, 200, 200, 0, 0, 0, 0, 1, 1, 0, 1, 1, 0, 1, 0, 1, 0, 1
4, 3, '1', 0.000692061, 0.00351835, 0, 225.1, 225.1, 225.1, 0, 0, 0, 0, 1, 1, 0, 1, 1, 0, 1, 0, 1, 0, 1
62, 3, '1', 0.0027178, 0.0260978, 0.00842465, 250, 250, 250, 0, 0, 0, 0, 1, 1, 0, 1, 1, 0, 1, 0, 1, 0, 1
3, 479, '1', 0.00725845, 0.0696995, 0.0224998, 145, 145, 145, 0, 0, 0, 0, 1, 1, 0, 1, 1, 0, 1, 0, 1, 0, 1
6, 5, '1', 0.000555857, 0.00356302, 0, 4.5, 4.5, 4.5, 0, 0, 0, 0, 1, 1, 0, 1, 1, 0, 1, 0, 1, 0, 1
316, 5, '1', 0.00244518, 0.0234799, 0.00757958, 145, 145, 145, 0, 0, 0, 0, 1, 1, 0, 1, 1, 0, 1, 0, 1, 0, 1
401, 5, '1', 0.00488619, 0.0469198, 0.0151462, 145, 145, 145, 0, 0, 0, 0, 1, 1, 0, 1, 1, 0, 1, 0, 1, 0, 1
7, 232, '1', 0.00111912, 0.0148076, 0.312051, 1100, 1100, 1100, 0, 0, 0, 0, 1, 1, 0, 1, 1, 0, 1, 0, 1, 0, 1
7, 262, '1', 0.000946655, 0.0137492, 0.239936, 900, 900, 900, 0, 0, 0, 0, 1, 1, 0, 1, 1, 0, 1, 0, 1, 0, 1
8, 287, '1', 0.00372677, 0.0357864, 0.0115523, 300, 300, 300, 0, 0, 0, 0, 1, 1, 0, 1, 1, 0, 1, 0, 1, 0, 1
8, 457, '1', 0.00197391, 0.0189546, 0.00611875, 200, 200, 200, 0, 0, 0, 0, 1, 1, 0, 1, 1, 0, 1, 0, 1, 0, 1
11, 10, '1', 0.000654968, 0.00320079, 0, 4, 4, 4, 0, 0, 0, 0, 1, 1, 0, 1, 1, 0, 1, 0, 1, 0, 1
342, 10, '1', 0.00282453, 0.0271226, 0.00875548, 145, 145, 145, 0, 0, 0, 0, 1, 1, 0, 1, 1, 0, 1, 0, 1, 0, 1
10, 349, '1', 0.00140166, 0.0134595, 0.00434489, 145, 145, 145, 0, 0, 0, 0, 1, 1, 0, 1, 1, 0, 1, 0, 1, 0, 1
13, 12, '1', 0.000623092, 0.00313413, 0, 65.5, 65.5, 65.5, 0, 0, 0, 0, 1, 1, 0, 1, 1, 0, 1, 0, 1, 0, 1
12, 216, '1', 0.00396229, 0.038048, 0.0122823, 270, 270, 270, 0, 0, 0, 0, 1, 1, 0, 1, 1, 0, 1, 0, 1, 0, 1
12, 304, '1', 0.00231014, 0.0211915, 0.00750976, 290, 290, 290, 0, 0, 0, 0, 1, 1, 0, 1, 1, 0, 1, 0, 1, 0, 1
12, 441, '1', 0.00156469, 0.015025, 0.00485023, 280, 280, 280, 0, 0, 0, 0, 1, 1, 0, 1, 1, 0, 1, 0, 1, 0, 1
386, 14, '1', 0.000316955, 0.00454654, 0.0813632, 900, 900, 900, 0, 0, 0, 0, 1, 1, 0, 1, 1, 0, 1, 0, 1, 0, 1
386, 14, '2', 0.00032, 0.00455, 0.08136, 1200, 1200, 1200, 0, 0, 0, 0, 1, 1, 0, 1, 1, 0, 1, 0, 1, 0, 1
15, 91, '1', 0.00479928, 0.0460852, 0.0148768, 160, 160, 160, 0, 0, 0, 0, 1, 1, 0, 1, 1, 0, 1, 0, 1, 0, 1
15, 230, '1', 0.0108937, 0.104607, 0.0337685, 220, 220, 220, 0, 0, 0, 0, 1, 1, 0, 1, 1, 0, 1, 0, 1, 0, 1
367, 15, '1', 0.00191786, 0.0184163, 0.00594499, 330, 330, 330, 0, 0, 0, 0, 1, 1, 0, 1, 1, 0, 1, 0, 1, 0, 1
15, 369, '1', 0.00185435, 0.0170105, 0.0060281, 220, 220, 220, 0, 0, 0, 0, 1, 1, 0, 1, 1, 0, 1, 0, 1, 0, 1
15, 473, '1', 0.00922481, 0.0846215, 0.0299878, 145, 145, 145, 0, 0, 0, 0, 1, 1, 0, 1, 1, 0, 1, 0, 1, 0, 1
20, 19, '1', 0.000541213, 0.00388582, 0, 7.5, 7.5, 7.5, 0, 0, 0, 0, 1, 1, 0, 1, 1, 0, 1, 0, 1, 0, 1
19, 112, '1', 0.00472218, 0.0453449, 0.0146378, 145, 145, 145, 0, 0, 0, 0, 1, 1, 0, 1, 1, 0, 1, 0, 1, 0, 1
193, 19, '1', 0.00222052, 0.0213226, 0.00688319, 270, 270, 270, 0, 0, 0, 0, 1, 1, 0, 1, 1, 0, 1, 0, 1, 0, 1
19, 272, '1', 0.00229314, 0.0220199, 0.00710827, 205, 205, 205, 0, 0, 0, 0, 1, 1, 0, 1, 1, 0, 1, 0, 1, 0, 1
22, 21, '1', 0.000587223, 0.00317397, 0, 254.2, 254.2, 254.2, 0, 0, 0, 0, 1, 1, 0, 1, 1, 0, 1, 0, 1, 0, 1
21, 112, '1', 0.00509204, 0.0488965, 0.0157843, 270, 270, 270, 0, 0, 0, 0, 1, 1, 0, 1, 1, 0, 1, 0, 1, 0, 1
21, 196, '1', 0.00220719, 0.0202471, 0.00717509, 365, 365, 365, 0, 0, 0, 0, 1, 1, 0, 1, 1, 0, 1, 0, 1, 0, 1
151, 23, '1', 0.000181712, 0.00260656, 0.046646, 1050, 1050, 1050, 0, 0, 0, 0, 1, 1, 0, 1, 1, 0, 1, 0, 1, 0, 1
23, 386, '1', 0.001642, 0.023851, 0.416226, 1000, 1000, 1000, 0, 0, 0, 0, 0, 1, 0, 1, 1, 0, 1, 0, 1, 0, 1
23, 464, '1', 0.000947169, 0.0125324, 0.264105, 1000, 1000, 1000, 0, 0, 0, 0, 1, 1, 0, 1, 1, 0, 1, 0, 1, 0, 1
23, 471, '1', 0.000532103, 0.0070405, 0.14837, 1100, 1100, 1100, 0, 0, 0, 0, 1, 1, 0, 1, 1, 0, 1, 0, 1, 0, 1
25, 24, '1', 0.000613052, 0.00362887, 0, 3.6, 3.6, 3.6, 0, 0, 0, 0, 1, 1, 0, 1, 1, 0, 1, 0, 1, 0, 1
26, 24, '1', 0.000563017, 0.00372943, 0, 29.5, 29.5, 29.5, 0, 0, 0, 0, 1, 1, 0, 1, 1, 0, 1, 0, 1, 0, 1
210, 24, '1', 0.00221775, 0.020344, 0.00720941, 270, 270, 270, 0, 0, 0, 0, 1, 1, 0, 1, 1, 0, 1, 0, 1, 0, 1
24, 360, '1', 0.0023654, 0.0227138, 0.00733228, 240, 240, 240, 0, 0, 0, 0, 1, 1, 0, 1, 1, 0, 1, 0, 1, 0, 1
28, 27, '1', 0.000686715, 0.00396302, 0, 108.6, 108.6, 108.6, 0, 0, 0, 0, 1, 1, 0, 1, 1, 0, 1, 0, 1, 0, 1
27, 68, '1', 0.00560738, 0.053845, 0.0173818, 300, 300, 300, 0, 0, 0, 0, 1, 1, 0, 1, 1, 0, 1, 0, 1, 0, 1
27, 382, '1', 0.00336979, 0.0309119, 0.0109544, 185, 185, 185, 0, 0, 0, 0, 1, 1, 0, 1, 1, 0, 1, 0, 1, 0, 1
30, 29, '1', 0.000616364, 0.00329848, 0, 157, 157, 157, 0, 0, 0, 0, 1, 1, 0, 1, 1, 0, 1, 0, 1, 0, 1
454, 29, '1', 0.00246982, 0.0226563, 0.00802886, 300, 300, 300, 0, 0, 0, 0, 1, 1, 0, 1, 1, 0, 1, 0, 1, 0, 1
29, 491, '1', 0.005607, 0.053837, 0.017379, 145, 145, 145, 0, 0, 0, 0, 1, 1, 0, 1, 1, 0, 1, 0, 1, 0, 1
32, 31, '1', 0.000625228, 0.00342917, 0, 15.7, 15.7, 15.7, 0, 0, 0, 0, 1, 1, 0, 1, 1, 0, 1, 0, 1, 0, 1
31, 85, '1', 0.00530344, 0.0509265, 0.0164396, 300, 300, 300, 0, 0, 0, 0, 1, 1, 0, 1, 1, 0, 1, 0, 1, 0, 1
104, 31, '1', 0.005526, 0.053062, 0.017129, 145, 145, 145, 0, 0, 0, 0, 1, 1, 0, 1, 1, 0, 1, 0, 1, 0, 1
31, 189, '1', 0.0057068, 0.0547997, 0.01769, 145, 145, 145, 0, 0, 0, 0, 1, 1, 0, 1, 1, 0, 1, 0, 1, 0, 1
31, 205, '1', 0.00779682, 0.0748692, 0.0241686, 145, 145, 145, 0, 0, 0, 0, 1, 1, 0, 1, 1, 0, 1, 0, 1, 0, 1
31, 218, '1', 0.00827343, 0.0794458, 0.025646, 145, 145, 145, 0, 0, 0, 0, 1, 1, 0, 1, 1, 0, 1, 0, 1, 0, 1
267, 31, '1', 0.00489674, 0.0470211, 0.0151789, 220, 220, 220, 0, 0, 0, 0, 1, 1, 0, 1, 1, 0, 1, 0, 1, 0, 1
34, 33, '1', 0.000624403, 0.00328363, 0, 43.4, 43.4, 43.4, 0, 0, 0, 0, 1, 1, 0, 1, 1, 0, 1, 0, 1, 0, 1
83, 33, '1', 0.00528651, 0.0507639, 0.0163871, 220, 220, 220, 0, 0, 0, 0, 1, 1, 0, 1, 1, 0, 1, 0, 1, 0, 1
112, 33, '1', 0.00706143, 0.0678076, 0.021889, 220, 220, 220, 0, 0, 0, 0, 1, 1, 0, 1, 1, 0, 1, 0, 1, 0, 1
36, 35, '1', 0.000582978, 0.00303006, 0, 62.9, 62.9, 62.9, 0, 0, 0, 0, 1, 1, 0, 1, 1, 0, 1, 0, 1, 0, 1
191, 35, '1', 0.00403801, 0.0370417, 0.0131267, 145, 145, 145, 0, 0, 0, 0, 1, 1, 0, 1, 1, 0, 1, 0, 1, 0, 1
35, 399, '1', 0.005636, 0.054123, 0.017472, 270, 270, 270, 0, 0, 0, 0, 1, 1, 0, 1, 1, 0, 1, 0, 1, 0, 1
38, 37, '1', 0.0005458, 0.00382289, 0, 0.2, 0.2, 0.2, 0, 0, 0, 0, 1, 1, 0, 1, 1, 0, 1, 0, 1, 0, 1
76, 37, '1', 0.00147415, 0.0141555, 0.00456957, 270, 270, 270, 0, 0, 0, 0, 1, 1, 0, 1, 1, 0, 1, 0, 1, 0, 1
37, 176, '1', 0.00303873, 0.0291795, 0.00941948, 275, 275, 275, 0, 0, 0, 0, 1, 1, 0, 1, 1, 0, 1, 0, 1, 0, 1
39, 332, '1', 0.000403375, 0.00578618, 0.103547, 900, 900, 900, 0, 0, 0, 0, 1, 1, 0, 1, 1, 0, 1, 0, 1, 0, 1
39, 428, '1', 0.000521367, 0.00689845, 0.145376, 900, 900, 900, 0, 0, 0, 0, 1, 1, 0, 1, 1, 0, 1, 0, 1, 0, 1
41, 40, '1', 0.000631179, 0.00392265, 0, 97.5, 97.5, 97.5, 0, 0, 0, 0, 1, 1, 0, 1, 1, 0, 1, 0, 1, 0, 1
40, 131, '1', 0.00290861, 0.0266814, 0.00945527, 145, 145, 145, 0, 0, 0, 0, 1, 1, 0, 1, 1, 0, 1, 0, 1, 0, 1
43, 42, '1', 0.000541641, 0.00311887, 0, 7.7, 7.7, 7.7, 0, 0, 0, 0, 1, 1, 0, 1, 1, 0, 1, 0, 1, 0, 1
81, 42, '1', 0.00236124, 0.0216602, 0.00767586, 270, 270, 270, 0, 0, 0, 0, 1, 1, 0, 1, 1, 0, 1, 0, 1, 0, 1
42, 191, '1', 0.0063685, 0.0584198, 0.0207026, 270, 270, 270, 0, 0, 0, 0, 1, 1, 0, 1, 1, 0, 1, 0, 1, 0, 1
45, 44, '1', 0.000636537, 0.00387643, 0, 2.8, 2.8, 2.8, 0, 0, 0, 0, 1, 1, 0, 1, 1, 0, 1, 0, 1, 0, 1
44, 200, '1', 0.00210518, 0.0193113, 0.00684347, 250, 250, 250, 0, 0, 0, 0, 1, 1, 0, 1, 1, 0, 1, 0, 1, 0, 1
47, 46, '1', 0.000602161, 0.00345412, 0, 63, 63, 63, 0, 0, 0, 0, 1, 1, 0, 1, 1, 0, 1, 0, 1, 0, 1
46, 156, '1', 0.00661096, 0.0634819, 0.0204927, 185, 185, 185, 0, 0, 0, 0, 1, 1, 0, 1, 1, 0, 1, 0, 1, 0, 1
238, 46, '1', 0.00313385, 0.0300929, 0.00971433, 185, 185, 185, 0, 0, 0, 0, 1, 1, 0, 1, 1, 0, 1, 0, 1, 0, 1
51, 48, '1', 0.000657783, 0.00367224, 0, 0.6, 0.6, 0.6, 0, 0, 0, 0, 1, 1, 0, 1, 1, 0, 1, 0, 1, 0, 1
52, 48, '1', 0.00062, 0.00334229, 0, 37.9, 37.9, 37.9, 0, 0, 0, 0, 1, 1, 0, 1, 1, 0, 1, 0, 1, 0, 1
358, 48, '1', 0.0045, 0.041283, 0.01463, 270, 270, 270, 0, 0, 0, 0, 1, 1, 0, 1, 1, 0, 1, 0, 1, 0, 1
419, 48, '1', 0.004637, 0.044525, 0.014373, 220, 220, 220, 0, 0, 0, 0, 1, 1, 0, 1, 1, 0, 1, 0, 1, 0, 1
54, 53, '1', 0.000680462, 0.00306134, 0, 51.3, 51.3, 51.3, 0, 0, 0, 0, 1, 1, 0, 1, 1, 0, 1, 0, 1, 0, 1
233, 53, '1', 0.00236198, 0.0216671, 0.0076783, 200, 200, 200, 0, 0, 0, 0, 1, 1, 0, 1, 1, 0, 1, 0, 1, 0, 1
53, 276, '1', 0.0015021, 0.0144239, 0.00465621, 200, 200, 200, 0, 0, 0, 0, 1, 1, 0, 1, 1, 0, 1, 0, 1, 0, 1
56, 55, '1', 0.000640992, 0.00331002, 0, 3.1, 3.1, 3.1, 0, 0, 0, 0, 1, 1, 0, 1, 1, 0, 1, 0, 1, 0, 1
55, 66, '1', 0.00432958, 0.041575, 0.0134209, 145, 145, 145, 0, 0, 0, 0, 1, 1, 0, 1, 1, 0, 1, 0, 1, 0, 1
55, 500, '1', 0.00448061, 0.0411018, 0.0145655, 145, 145, 145, 0, 0, 0, 0, 1, 1, 0, 1, 1, 0, 1, 0, 1, 0, 1
57, 123, '1', 0.001682, 0.024427, 0.426274, 1000, 1000, 1000, 0, 0, 0, 0, 1, 1, 0, 1, 1, 0, 1, 0, 1, 0, 1
440, 57, '1', 0.000600772, 0.00872563, 0.15227, 900, 900, 900, 0, 0, 0, 0, 1, 1, 0, 1, 1, 0, 1, 0, 1, 0, 1
59, 58, '1', 0.000620439, 0.00384844, 0, 252.9, 252.9, 252.9, 0, 0, 0, 0, 1, 1, 0, 1, 1, 0, 1, 0, 1, 0, 1
58, 253, '1', 0.00453214, 0.04352, 0.0140487, 200, 200, 200, 0, 0, 0, 0, 1, 1, 0, 1, 1, 0, 1, 0, 1, 0, 1
322, 58, '1', 0.002019, 0.019385, 0.006258, 220, 220, 220, 0, 0, 0, 0, 0, 1, 0, 1, 1, 0, 1, 0, 1, 0, 1
322, 58, '2', 0.00202, 0.01939, 0.00626, 320.3, 320.3, 320.3, 0, 0, 0, 0, 1, 1, 0, 1, 1, 0, 1, 0, 1, 0, 1
61, 60, '1', 0.000528782, 0.00351793, 0, 0.3, 0.3, 0.3, 0, 0, 0, 0, 1, 1, 0, 1, 1, 0, 1, 0, 1, 0, 1
60, 131, '1', 0.0019849, 0.018208, 0.00645249, 185, 185, 185, 0, 0, 0, 0, 1, 1, 0, 1, 1, 0, 1, 0, 1, 0, 1
466, 60, '1', 0.00201135, 0.0193141, 0.00623481, 185, 185, 185, 0, 0, 0, 0, 1, 1, 0, 1, 1, 0, 1, 0, 1, 0, 1
64, 62, '1', 0.000661196, 0.00327389, 0, 45.6, 45.6, 45.6, 0, 0, 0, 0, 1, 1, 0, 1, 1, 0, 1, 0, 1, 0, 1
287, 62, '1', 0.00545324, 0.0523649, 0.016904, 160, 160, 160, 0, 0, 0, 0, 1, 1, 0, 1, 1, 0, 1, 0, 1, 0, 1
62, 457, '1', 0.00726746, 0.069786, 0.0225277, 200, 200, 200, 0, 0, 0, 0, 1, 1, 0, 1, 1, 0, 1, 0, 1, 0, 1
80, 65, '1', 0.000960188, 0.0137734, 0.246483, 1350, 1350, 1350, 0, 0, 0, 0, 0, 1, 0, 1, 1, 0, 1, 0, 1, 0, 1
65, 297, '1', 0.000919634, 0.0131916, 0.236073, 900, 900, 900, 0, 0, 0, 0, 1, 1, 0, 1, 1, 0, 1, 0, 1, 0, 1
67, 66, '1', 0.000661357, 0.00335859, 0, 6.7, 6.7, 6.7, 0, 0, 0, 0, 1, 1, 0, 1, 1, 0, 1, 0, 1, 0, 1
66, 308, '1', 0.00718043, 0.0689503, 0.0222579, 270, 270, 270, 0, 0, 0, 0, 0, 1, 0, 1, 1, 0, 1, 0, 1, 0, 1
69, 68, '1', 0.00066883, 0.00399823, 0, 27.6, 27.6, 27.6, 0, 0, 0, 0, 1, 1, 0, 1, 1, 0, 1, 0, 1, 0, 1
68, 295, '1', 0.00446902, 0.0409955, 0.0145278, 145, 145, 145, 0, 0, 0, 0, 1, 1, 0, 1, 1, 0, 1, 0, 1, 0, 1
68, 314, '1', 0.00180512, 0.0173337, 0.00559552, 220, 220, 220, 0, 0, 0, 0, 1, 1, 0, 1, 1, 0, 1, 0, 1, 0, 1
216, 70, '1', 0.00259564, 0.0238105, 0.00843787, 170, 170, 170, 0, 0, 0, 0, 1, 1, 0, 1, 1, 0, 1, 0, 1, 0, 1
70, 490, '1', 0.00212701, 0.0195116, 0.00691444, 170, 170, 170, 0, 0, 0, 0, 1, 1, 0, 1, 1, 0, 1, 0, 1, 0, 1
75, 74, '1', 0.00058441, 0.0033391, 0, 8.8, 8.8, 8.8, 0, 0, 0, 0, 1, 1, 0, 1, 1, 0, 1, 0, 1, 0, 1
74, 189, '1', 0.00563229, 0.0540843, 0.017459, 220, 220, 220, 0, 0, 0, 0, 1, 1, 0, 1, 1, 0, 1, 0, 1, 0, 1
240, 74, '1', 0.00443354, 0.04067, 0.0144125, 220, 220, 220, 0, 0, 0, 0, 1, 1, 0, 1, 1, 0, 1, 0, 1, 0, 1
77, 76, '1', 0.000695009, 0.00331266, 0, 12.2, 12.2, 12.2, 0, 0, 0, 0, 1, 1, 0, 1, 1, 0, 1, 0, 1, 0, 1
452, 76, '1', 0.002012, 0.019322, 0.006237, 330, 330, 330, 0, 0, 0, 0, 1, 1, 0, 1, 1, 0, 1, 0, 1, 0, 1
79, 78, '1', 0.000622277, 0.00327852, 0, 0.5, 0.5, 0.5, 0, 0, 0, 0, 1, 1, 0, 1, 1, 0, 1, 0, 1, 0, 1
78, 328, '1', 0.00543197, 0.0498288, 0.0176582, 260, 260, 260, 0, 0, 0, 0, 1, 1, 0, 1, 1, 0, 1, 0, 1, 0, 1
78, 387, '1', 0.00235449, 0.022609, 0.00729845, 260, 260, 260, 0, 0, 0, 0, 1, 1, 0, 1, 1, 0, 1, 0, 1, 0, 1
407, 80, '1', 0.000818, 0.010825, 0.228132, 1050, 1050, 1050, 0, 0, 0, 0, 1, 1, 0, 1, 1, 0, 1, 0, 1, 0, 1
149, 81, '1', 0.00287908, 0.0264105, 0.00935925, 145, 145, 145, 0, 0, 0, 0, 1, 1, 0, 1, 1, 0, 1, 0, 1, 0, 1
84, 83, '1', 0.000637555, 0.00365521, 0, 105.4, 105.4, 105.4, 0, 0, 0, 0, 1, 1, 0, 1, 1, 0, 1, 0, 1, 0, 1
83, 342, '1', 0.00411562, 0.0395203, 0.0127576, 145, 145, 145, 0, 0, 0, 0, 1, 1, 0, 1, 1, 0, 1, 0, 1, 0, 1
86, 85, '1', 0.00065231, 0.00390108, 0, 30, 30, 30, 0, 0, 0, 0, 1, 1, 0, 1, 1, 0, 1, 0, 1, 0, 1
272, 85, '1', 0.00441169, 0.0404695, 0.0143414, 270, 270, 270, 0, 0, 0, 0, 1, 1, 0, 1, 1, 0, 1, 0, 1, 0, 1
88, 87, '1', 0.000622526, 0.00356856, 0, 7.7, 7.7, 7.7, 0, 0, 0, 0, 1, 1, 0, 1, 1, 0, 1, 0, 1, 0, 1
87, 141, '1', 0.001846, 0.017727, 0.005723, 520, 520, 520, 0, 0, 0, 0, 1, 1, 0, 1, 1, 0, 1, 0, 1, 0, 1
87, 143, '1', 0.00382, 0.035043, 0.012419, 515, 515, 515, 0, 0, 0, 0, 1, 1, 0, 1, 1, 0, 1, 0, 1, 0, 1
423, 87, '1', 0.00183568, 0.0176272, 0.00569025, 270, 270, 270, 0, 0, 0, 0, 1, 1, 0, 1, 1, 0, 1, 0, 1, 0, 1
90, 89, '1', 0.000554087, 0.00386402, 0, 10.5, 10.5, 10.5, 0, 0, 0, 0, 1, 1, 0, 1, 1, 0, 1, 0, 1, 0, 1
89, 187, '1', 0.00211627, 0.0203216, 0.00656004, 145, 145, 145, 0, 0, 0, 0, 1, 1, 0, 1, 1, 0, 1, 0, 1, 0, 1
89, 457, '1', 0.009012, 0.082666, 0.029295, 145, 145, 145, 0, 0, 0, 0, 1, 1, 0, 1, 1, 0, 1, 0, 1, 0, 1
92, 91, '1', 0.0005717, 0.00361724, 0, 104.2, 104.2, 104.2, 0, 0, 0, 0, 1, 1, 0, 1, 1, 0, 1, 0, 1, 0, 1
91, 133, '1', 0.00504049, 0.0484015, 0.0156245, 270, 270, 270, 0, 0, 0, 0, 1, 1, 0, 1, 1, 0, 1, 0, 1, 0, 1
94, 93, '1', 0.000536047, 0.00328149, 0, 8.2, 8.2, 8.2, 0, 0, 0, 0, 1, 1, 0, 1, 1, 0, 1, 0, 1, 0, 1
269, 93, '1', 0.00392064, 0.035965, 0.0127451, 270, 270, 270, 0, 0, 0, 0, 1, 1, 0, 1, 1, 0, 1, 0, 1, 0, 1
336, 93, '1', 0.00579454, 0.0531548, 0.0188368, 270, 270, 270, 0, 0, 0, 0, 1, 1, 0, 1, 1, 0, 1, 0, 1, 0, 1
96, 95, '1', 0.00056273, 0.00325345, 0, 56.2, 56.2, 56.2, 0, 0, 0, 0, 1, 1, 0, 1, 1, 0, 1, 0, 1, 0, 1
95, 170, '1', 0.0021107, 0.020268, 0.00654275, 145, 145, 145, 0, 0, 0, 0, 1, 1, 0, 1, 1, 0, 1, 0, 1, 0, 1
95, 369, '1', 0.00409437, 0.0393163, 0.0126918, 270, 270, 270, 0, 0, 0, 0, 1, 1, 0, 1, 1, 0, 1, 0, 1, 0, 1
98, 97, '1', 0.000568811, 0.00398603, 0, 66.4, 66.4, 66.4, 0, 0, 0, 0, 1, 1, 0, 1, 1, 0, 1, 0, 1, 0, 1
181, 97, '1', 0.00299237, 0.0287344, 0.00927578, 145, 145, 145, 0, 0, 0, 0, 1, 1, 0, 1, 1, 0, 1, 0, 1, 0, 1
358, 97, '1', 0.00267648, 0.024552, 0.00870064, 270, 270, 270, 0, 0, 0, 0, 1, 1, 0, 1, 1, 0, 1, 0, 1, 0, 1
100, 99, '1', 0.000644448, 0.00362034, 0, 22.7, 22.7, 22.7, 0, 0, 0, 0, 1, 1, 0, 1, 1, 0, 1, 0, 1, 0, 1
101, 99, '1', 0.000699472, 0.00329389, 0, 1.4, 1.4, 1.4, 0, 0, 0, 0, 1, 1, 0, 1, 1, 0, 1, 0, 1, 0, 1
99, 465, '1', 0.0026889, 0.0258203, 0.00833507, 145, 145, 145, 0, 0, 0, 0, 1, 1, 0, 1, 1, 0, 1, 0, 1, 0, 1
472, 99, '1', 0.00331831, 0.0318642, 0.0102861, 145, 145, 145, 0, 0, 0, 0, 1, 1, 0, 1, 1, 0, 1, 0, 1, 0, 1
103, 102, '1', 0.000613984, 0.00387398, 0, 64.6, 64.6, 64.6, 0, 0, 0, 0, 1, 1, 0, 1, 1, 0, 1, 0, 1, 0, 1
102, 308, '1', 0.00564993, 0.0542537, 0.0175137, 270, 270, 270, 0, 0, 0, 0, 1, 1, 0, 1, 1, 0, 1, 0, 1, 0, 1
419, 102, '1', 0.00363843, 0.0349382, 0.0112784, 270, 270, 270, 0, 0, 0, 0, 1, 1, 0, 1, 1, 0, 1, 0, 1, 0, 1
105, 104, '1', 0.000672543, 0.00375095, 0, 144.2, 144.2, 144.2, 0, 0, 0, 0, 1, 1, 0, 1, 1, 0, 1, 0, 1, 0, 1
104, 191, '1', 0.00517651, 0.0474854, 0.0168277, 145, 145, 145, 0, 0, 0, 0, 1, 1, 0, 1, 1, 0, 1, 0, 1, 0, 1
107, 106, '1', 0.000574563, 0.00320633, 0, 24.5, 24.5, 24.5, 0, 0, 0, 0, 1, 1, 0, 1, 1, 0, 1, 0, 1, 0, 1
106, 191, '1', 0.00446795, 0.0429036, 0.0138498, 270, 270, 270, 0, 0, 0, 0, 1, 1, 0, 1, 1, 0, 1, 0, 1, 0, 1
236, 106, '1', 0.00311532, 0.029915, 0.00965689, 270, 270, 270, 0, 0, 0, 0, 1, 1, 0, 1, 1, 0, 1, 0, 1, 0, 1
109, 108, '1', 0.000658007, 0.00300957, 0, 62.9, 62.9, 62.9, 0, 0, 0, 0, 1, 1, 0, 1, 1, 0, 1, 0, 1, 0, 1
108, 472, '1', 0.00203292, 0.0195212, 0.00630167, 185, 185, 185, 0, 0, 0, 0, 1, 1, 0, 1, 1, 0, 1, 0, 1, 0, 1
108, 495, '1', 0.00361075, 0.0346724, 0.0111926, 220, 220, 220, 0, 0, 0, 0, 1, 1, 0, 1, 1, 0, 1, 0, 1, 0, 1
111, 110, '1', 0.000526841, 0.00370826, 0, 87, 87, 87, 0, 0, 0, 0, 1, 1, 0, 1, 1, 0, 1, 0, 1, 0, 1
274, 110, '1', 0.00312607, 0.0300181, 0.0096902, 220, 220, 220, 0, 0, 0, 0, 1, 1, 0, 1, 1, 0, 1, 0, 1, 0, 1
110, 316, '1', 0.00343915, 0.0330245, 0.0106607, 145, 145, 145, 0, 0, 0, 0, 1, 1, 0, 1, 1, 0, 1, 0, 1, 0, 1
113, 112, '1', 0.000644371, 0.00311935, 0, 73, 73, 73, 0, 0, 0, 0, 1, 1, 0, 1, 1, 0, 1, 0, 1, 0, 1
193, 112, '1', 0.00286733, 0.0275336, 0.00888817, 175, 175, 175, 0, 0, 0, 0, 1, 1, 0, 1, 1, 0, 1, 0, 1, 0, 1
112, 236, '1', 0.00632924, 0.0607768, 0.0196194, 300, 300, 300, 0, 0, 0, 0, 1, 1, 0, 1, 1, 0, 1, 0, 1, 0, 1
112, 283, '1', 0.00861853, 0.0827597, 0.0267158, 145, 145, 145, 0, 0, 0, 0, 1, 1, 0, 1, 1, 0, 1, 0, 1, 0, 1
372, 112, '1', 0.0020065, 0.0192675, 0.00621976, 285, 285, 285, 0, 0, 0, 0, 1, 1, 0, 1, 1, 0, 1, 0, 1, 0, 1
112, 499, '1', 0.0055765, 0.0511546, 0.018128, 220, 220, 220, 0, 0, 0, 0, 1, 1, 0, 1, 1, 0, 1, 0, 1, 0, 1
115, 114, '1', 0.000506233, 0.00336036, 0, 6.7, 6.7, 6.7, 0, 0, 0, 0, 1, 1, 0, 1, 1, 0, 1, 0, 1, 0, 1
116, 114, '1', 0.000505013, 0.00341051, 0, 5.3, 5.3, 5.3, 0, 0, 0, 0, 1, 1, 0, 1, 1, 0, 1, 0, 1, 0, 1
114, 191, '1', 0.00555724, 0.0533636, 0.0172264, 145, 145, 145, 0, 0, 0, 0, 1, 1, 0, 1, 1, 0, 1, 0, 1, 0, 1
114, 312, '1', 0.0066089, 0.0634622, 0.0204863, 145, 145, 145, 0, 0, 0, 0, 1, 1, 0, 1, 1, 0, 1, 0, 1, 0, 1
118, 117, '1', 0.000633836, 0.00385096, 0, 12.8, 12.8, 12.8, 0, 0, 0, 0, 1, 1, 0, 1, 1, 0, 1, 0, 1, 0, 1
117, 426, '1', 0.00317216, 0.029099, 0.010312, 145, 145, 145, 0, 0, 0, 0, 1, 1, 0, 1, 1, 0, 1, 0, 1, 0, 1
490, 117, '1', 0.00299873, 0.0275081, 0.0097482, 300, 300, 300, 0, 0, 0, 0, 1, 1, 0, 1, 1, 0, 1, 0, 1, 0, 1
120, 119, '1', 0.000556147, 0.00305904, 0, 46.6, 46.6, 46.6, 0, 0, 0, 0, 1, 1, 0, 1, 1, 0, 1, 0, 1, 0, 1
119, 129, '1', 0.00234965, 0.0215539, 0.0076382, 270, 270, 270, 0, 0, 0, 0, 1, 1, 0, 1, 1, 0, 1, 0, 1, 0, 1
253, 119, '1', 0.00149439, 0.0143499, 0.00463231, 250, 250, 250, 0, 0, 0, 0, 1, 1, 0, 1, 1, 0, 1, 0, 1, 0, 1
122, 121, '1', 0.000554934, 0.00384643, 0, 70.4, 70.4, 70.4, 0, 0, 0, 0, 1, 1, 0, 1, 1, 0, 1, 0, 1, 0, 1
121, 276, '1', 0.00254757, 0.0244631, 0.00789698, 145, 145, 145, 0, 0, 0, 0, 1, 1, 0, 1, 1, 0, 1, 0, 1, 0, 1
121, 287, '1', 0.00708754, 0.0680583, 0.02197, 145, 145, 145, 0, 0, 0, 0, 1, 1, 0, 1, 1, 0, 1, 0, 1, 0, 1
165, 123, '1', 0.000216027, 0.00313758, 0.0547534, 900, 900, 900, 0, 0, 0, 0, 1, 1, 0, 1, 1, 0, 1, 0, 1, 0, 1
124, 260, '1', 0.00203952, 0.0187091, 0.00663005, 220, 220, 220, 0, 0, 0, 0, 1, 1, 0, 1, 1, 0, 1, 0, 1, 0, 1
124, 369, '1', 0.00769284, 0.0705683, 0.0250077, 225, 225, 225, 0, 0, 0, 0, 1, 1, 0, 1, 1, 0, 1, 0, 1, 0, 1
130, 129, '1', 0.000698008, 0.00322102, 0, 166, 166, 166, 0, 0, 0, 0, 1, 1, 0, 1, 1, 0, 1, 0, 1, 0, 1
304, 129, '1', 0.00306297, 0.0294122, 0.0094946, 195, 195, 195, 0, 0, 0, 0, 1, 1, 0, 1, 1, 0, 1, 0, 1, 0, 1
324, 129, '1', 0.00187843, 0.0172313, 0.00610636, 195, 195, 195, 0, 0, 0, 0, 1, 1, 0, 1, 1, 0, 1, 0, 1, 0, 1
132, 131, '1', 0.000673258, 0.00361521, 0, 41.6, 41.6, 41.6, 0, 0, 0, 0, 1, 1, 0, 1, 1, 0, 1, 0, 1, 0, 1
131, 333, '1', 0.00222709, 0.0213857, 0.00690355, 300, 300, 300, 0, 0, 0, 0, 1, 1, 0, 1, 1, 0, 1, 0, 1, 0, 1
134, 133, '1', 0.000515032, 0.00308264, 0, 66, 66, 66, 0, 0, 0, 0, 1, 1, 0, 1, 1, 0, 1, 0, 1, 0, 1
133, 226, '1', 0.00644015, 0.0590771, 0.0209355, 145, 145, 145, 0, 0, 0, 0, 1, 1, 0, 1, 1, 0, 1, 0, 1, 0, 1
133, 369, '1', 0.00615507, 0.056462, 0.0200088, 300, 300, 300, 0, 0, 0, 0, 1, 1, 0, 1, 1, 0, 1, 0, 1, 0, 1
473, 133, '1', 0.00475466, 0.0456568, 0.0147385, 145, 145, 145, 0, 0, 0, 0, 1, 1, 0, 1, 1, 0, 1, 0, 1, 0, 1
136, 135, '1', 0.000548777, 0.0036604, 0, 45.6, 45.6, 45.6, 0, 0, 0, 0, 1, 1, 0, 1, 1, 0, 1, 0, 1, 0, 1
135, 287, '1', 0.00756782, 0.0694215, 0.0246013, 300, 300, 300, 0, 0, 0, 0, 1, 1, 0, 1, 1, 0, 1, 0, 1, 0, 1
135, 457, '1', 0.00686487, 0.0629732, 0.0223162, 220, 220, 220, 0, 0, 0, 0, 1, 1, 0, 1, 1, 0, 1, 0, 1, 0, 1
138, 137, '1', 0.000555555, 0.00378798, 0, 122.9, 122.9, 122.9, 0, 0, 0, 0, 1, 1, 0, 1, 1, 0, 1, 0, 1, 0, 1
137, 214, '1', 0.00312011, 0.029961, 0.00967175, 200, 200, 200, 0, 0, 0, 0, 1, 1, 0, 1, 1, 0, 1, 0, 1, 0, 1
137, 426, '1', 0.00299838, 0.028792, 0.00929439, 145, 145, 145, 0, 0, 0, 0, 1, 1, 0, 1, 1, 0, 1, 0, 1, 0, 1
137, 426, '2', 0.003, 0.02879, 0.00929, 320.3, 320.3, 320.3, 0, 0, 0, 0, 1, 1, 0, 1, 1, 0, 1, 0, 1, 0, 1
140, 139, '1', 0.000600197, 0.00318213, 0, 0.4, 0.4, 0.4, 0, 0, 0, 0, 1, 1, 0, 1, 1, 0, 1, 0, 1, 0, 1
139, 376, '1', 0.00267603, 0.0256967, 0.00829519, 185, 185, 185, 0, 0, 0, 0, 1, 1, 0, 1, 1, 0, 1, 0, 1, 0, 1
429, 139, '1', 0.00146772, 0.0140938, 0.00454964, 185, 185, 185, 0, 0, 0, 0, 1, 1, 0, 1, 1, 0, 1, 0, 1, 0, 1
142, 141, '1', 0.000686707, 0.00341671, 0, 209.8, 209.8, 209.8, 0, 0, 0, 0, 1, 1, 0, 1, 1, 0, 1, 0, 1, 0, 1
300, 141, '1', 0.00267026, 0.024495, 0.00868044, 430, 430, 430, 0, 0, 0, 0, 1, 1, 0, 1, 1, 0, 1, 0, 1, 0, 1
...
0 / END OF BRANCH DATA, BEGIN TRANSFORMER DATA
8, 7, 0, '1', 1, 1, 1, 0, 0, 2, ' ', 1, 1, 1, 0, 1, 0, 1, 0, 1, ' '
0.000355062, 0.0129, 567
1, 138, 0, 567, 567, 567, 0, 0, 1.5, .51, 1.5, .51, 159, 0, 0, 0, 0
1, 345
9, 7, 0, '1', 1, 1, 1, 0, 0, 2, ' ', 1, 1, 1, 0, 1, 0, 1, 0, 1, ' '
0.00012, 0.01362, 900
1, 13.8, 0, 900, 900, 900, 0, 0, 1.5, .51, 1.5, .51, 159, 0, 0, 0, 0
1, 345
9, 7, 0, '2', 1, 1, 1, 0, 0, 2, ' ', 1, 1, 1, 0, 1, 0, 1, 0, 1, ' '
0.00012, 0.01362, 900
1, 13.8, 0, 900, 900, 900, 0, 0, 1.5, .51, 1.5, .51, 159, 0, 0, 0, 0
1, 345
15, 14, 0, '1', 1, 1, 1, 0, 0, 2, ' ', 1, 1, 1, 0, 1, 0, 1, 0, 1, ' '
0.000207947, 0.01122, 682
1, 138, 0, 682, 682, 682, 0, 0, 1.5, .51, 1.5, .51, 159, 0, 0, 0, 0
1, 345
16, 14, 0, '1', 1, 1, 1, 0, 0, 2, ' ', 1, 1, 1, 0, 1, 0, 1, 0, 1, ' '
0.000325948, 0.01202, 596
1, 13.8, 0, 596, 596, 596, 0, 0, 1.5, .51, 1.5, .51, 159, 0, 0, 0, 0
1, 345
17, 14, 0, '1', 1, 1, 1, 0, 0, 2, ' ', 1, 1, 1, 0, 1, 0, 1, 0, 1, ' '
0.000279, 0.01438, 930
1, 13.8, 0, 930, 930, 930, 0, 0, 1.5, .51, 1.5, .51, 159, 0, 0, 0, 0
1, 345
17, 14, 0, '2', 1, 1, 1, 0, 0, 2, ' ', 1, 1, 1, 0, 1, 0, 1, 0, 1, ' '
0.000354, 0.01438, 930
1, 13.8, 0, 930, 930, 930, 0, 0, 1.5, .51, 1.5, .51, 159, 0, 0, 0, 0
1, 345
18, 14, 0, '1', 1, 1, 1, 0, 0, 2, ' ', 1, 1, 1, 0, 1, 0, 1, 0, 1, ' '
0.00141719, 0.05115, 340
1, 13.8, 0, 340, 340, 340, 0, 0, 1.5, .51, 1.5, .51, 159, 0, 0, 0, 0
1, 345
24, 23, 0, '1', 1, 1, 1, 0, 0, 2, ' ', 1, 1, 1, 0, 1, 0, 1, 0, 1, ' '
0.00033, 0.01764, 626
1, 138, 0, 626, 626, 626, 0, 0, 1.5, .51, 1.5, .51, 159, 0, 0, 0, 0
1, 345
40, 39, 0, '1', 1, 1, 1, 0, 0, 2, ' ', 1, 1, 1, 0, 1, 0, 1, 0, 1, ' '
0.0007, 0.02531, 428
1, 138, 0, 428, 428, 428, 0, 0, 1.5, .51, 1.5, .51, 159, 0, 0, 0, 0
1, 345
49, 48, 0, '1', 1, 1, 1, 0, 0, 2, ' ', 1, 1, 1, 0, 1, 0, 1, 0, 1, ' '
0.01331, 0.27853, 57
1, 13.8, 0, 57, 57, 57, 0, 0, 1.5, .51, 1.5, .51, 159, 0, 0, 0, 0
1, 138
50, 48, 0, '1', 1, 1, 1, 0, 0, 2, ' ', 1, 1, 1, 0, 1, 0, 1, 0, 1, ' '
0.00715, 0.16356, 100
1, 13.8, 0, 100, 100, 100, 0, 0, 1.5, .51, 1.5, .51, 159, 0, 0, 0, 0
1, 138
58, 57, 0, '1', 1, 1, 1, 0, 0, 2, ' ', 1, 1, 1, 0, 1, 0, 1, 0, 1, ' '
0.00012, 0.01762, 675
1, 138, 0, 675, 675, 675, 0, 0, 1.5, .51, 1.5, .51, 159, 0, 0, 0, 0
1, 345
58, 57, 0, '2', 1, 1, 1, 0, 0, 2, ' ', 1, 1, 1, 0, 1, 0, 1, 0, 1, ' '
0.00012, 0.01762, 675
1, 138, 0, 675, 675, 675, 0, 0, 1.5, .51, 1.5, .51, 159, 0, 0, 0, 0
1, 345
63, 62, 0, '1', 1, 1, 1, 0, 0, 2, ' ', 1, 1, 1, 0, 1, 0, 1, 0, 1, ' '
0.0032, 0.16353, 70
1, 13.8, 0, 70, 70, 70, 0, 0, 1.5, .51, 1.5, .51, 159, 0, 0, 0, 0
1, 138
66, 65, 0, '1', 1, 1, 1, 0, 0, 2, ' ', 1, 1, 1, 0, 1, 0, 1, 0, 1, ' '
0.000807929, 0.03088, 405
1, 138, 0, 405, 405, 405, 0, 0, 1.5, .51, 1.5, .51, 159, 0, 0, 0, 0
1, 345
71, 70, 0, '1', 1, 1, 1, 0, 0, 2, ' ', 1, 1, 1, 0, 1, 0, 1, 0, 1, ' '
0.00103, 0.04472, 133
1, 13.8, 0, 133, 133, 133, 0, 0, 1.5, .51, 1.5, .51, 159, 0, 0, 0, 0
1, 138
72, 70, 0, '1', 1, 1, 1, 0, 0, 2, ' ', 1, 1, 1, 0, 1, 0, 1, 0, 1, ' '
0.00292, 0.14481, 60
1, 13.8, 0, 60, 60, 60, 0, 0, 1.5, .51, 1.5, .51, 159, 0, 0, 0, 0
1, 138
73, 70, 0, '1', 1, 1, 1, 0, 0, 2, ' ', 1, 1, 1, 0, 1, 0, 1, 0, 1, ' '
0.0126963, 0.27303, 49
1, 13.8, 0, 49, 49, 49, 0, 0, 1.5, .51, 1.5, .51, 159, 0, 0, 0, 0
1, 138
81, 80, 0, '1', 1, 1, 1, 0, 0, 2, ' ', 1, 1, 1, 0, 1, 0, 1, 0, 1, ' '
0.00065, 0.03481, 529
...